  
       XFOIL         Version 6.99
  
 Calculated polar for: NACA 0012                                       
  
 1 1 Reynolds number fixed          Mach number fixed         
  
 xtrf =   1.000 (top)        1.000 (bottom)  
 Mach =   0.000     Re =     0.100 e 6     Ncrit =   9.000
  
   alpha    CL        CD       CDp       CM     Top_Xtr  Bot_Xtr
  ------ -------- --------- --------- -------- -------- --------
 -24.900  -0.6137   0.26318   0.25851   0.0522   1.0000   0.0462
 -24.800  -0.6098   0.26104   0.25635   0.0522   1.0000   0.0465
 -24.700  -0.6070   0.25949   0.25480   0.0520   1.0000   0.0468
 -24.600  -0.6047   0.25820   0.25350   0.0517   1.0000   0.0472
 -24.500  -0.6027   0.25702   0.25231   0.0513   1.0000   0.0476
 -24.400  -0.6008   0.25588   0.25117   0.0509   1.0000   0.0480
 -24.300  -0.5991   0.25478   0.25005   0.0504   1.0000   0.0484
 -24.200  -0.5974   0.25368   0.24895   0.0500   1.0000   0.0489
 -24.000  -0.5943   0.25149   0.24674   0.0490   1.0000   0.0500
 -23.900  -0.5929   0.25040   0.24565   0.0485   1.0000   0.0507
 -23.800  -0.5916   0.24933   0.24457   0.0479   1.0000   0.0514
 -23.700  -0.5905   0.24830   0.24353   0.0473   1.0000   0.0521
 -23.600  -0.5900   0.24740   0.24262   0.0465   1.0000   0.0528
 -23.500  -0.5905   0.24682   0.24202   0.0456   1.0000   0.0533
 -23.400  -0.5922   0.24666   0.24186   0.0446   1.0000   0.0535
 -23.300  -0.5948   0.24687   0.24208   0.0435   1.0000   0.0537
 -23.000  -0.5851   0.24096   0.23615   0.0428   1.0000   0.0544
 -22.900  -0.5818   0.23940   0.23459   0.0427   1.0000   0.0548
 -22.800  -0.5791   0.23812   0.23330   0.0424   1.0000   0.0553
 -22.700  -0.5768   0.23696   0.23213   0.0421   1.0000   0.0557
 -22.600  -0.5748   0.23586   0.23102   0.0417   1.0000   0.0563
 -22.500  -0.5729   0.23478   0.22993   0.0413   1.0000   0.0568
 -22.400  -0.5711   0.23371   0.22886   0.0408   1.0000   0.0574
 -22.300  -0.5695   0.23265   0.22779   0.0404   1.0000   0.0581
 -22.200  -0.5680   0.23160   0.22673   0.0399   1.0000   0.0588
 -22.000  -0.5654   0.22952   0.22464   0.0388   1.0000   0.0602
 -21.900  -0.5645   0.22857   0.22368   0.0381   1.0000   0.0610
 -21.800  -0.5645   0.22782   0.22293   0.0373   1.0000   0.0617
 -21.700  -0.5658   0.22742   0.22252   0.0363   1.0000   0.0621
 -21.600  -0.5684   0.22747   0.22256   0.0353   1.0000   0.0624
 -21.500  -0.5722   0.22791   0.22301   0.0341   1.0000   0.0626
 -21.400  -0.5767   0.22863   0.22373   0.0330   1.0000   0.0627
 -21.300  -0.5652   0.22366   0.21875   0.0337   1.0000   0.0631
 -21.200  -0.5588   0.22123   0.21631   0.0339   1.0000   0.0637
 -21.000  -0.5519   0.21857   0.21364   0.0337   1.0000   0.0650
 -20.900  -0.5495   0.21750   0.21255   0.0333   1.0000   0.0657
 -20.800  -0.5474   0.21646   0.21151   0.0330   1.0000   0.0665
 -20.700  -0.5456   0.21544   0.21048   0.0325   1.0000   0.0674
 -20.600  -0.5440   0.21442   0.20946   0.0321   1.0000   0.0682
 -20.500  -0.5426   0.21342   0.20845   0.0316   1.0000   0.0691
 -20.400  -0.5416   0.21246   0.20748   0.0310   1.0000   0.0700
 -20.300  -0.5412   0.21161   0.20663   0.0303   1.0000   0.0710
 -20.200  -0.5423   0.21110   0.20611   0.0294   1.0000   0.0717
 -20.000  -0.5497   0.21153   0.20654   0.0271   1.0000   0.0725
 -19.900  -0.5548   0.21218   0.20719   0.0259   1.0000   0.0727
 -19.800  -0.5605   0.21300   0.20802   0.0249   1.0000   0.0728
 -19.700  -0.5446   0.20707   0.20209   0.0257   1.0000   0.0733
 -19.600  -0.5373   0.20458   0.19957   0.0260   1.0000   0.0738
 -19.500  -0.5327   0.20301   0.19800   0.0261   1.0000   0.0744
 -19.400  -0.5292   0.20178   0.19675   0.0259   1.0000   0.0751
 -19.300  -0.5264   0.20069   0.19566   0.0257   1.0000   0.0760
 -19.200  -0.5240   0.19967   0.19464   0.0254   1.0000   0.0770
 -19.000  -0.5205   0.19773   0.19268   0.0246   1.0000   0.0793
 -18.900  -0.5195   0.19683   0.19177   0.0240   1.0000   0.0806
 -18.800  -0.5198   0.19609   0.19103   0.0233   1.0000   0.0819
 -18.700  -0.5227   0.19592   0.19086   0.0222   1.0000   0.0830
 -18.600  -0.5288   0.19651   0.19145   0.0208   1.0000   0.0835
 -18.500  -0.5361   0.19743   0.19237   0.0196   1.0000   0.0838
 -18.400  -0.5439   0.19852   0.19347   0.0184   1.0000   0.0839
 -18.300  -0.5306   0.19361   0.18857   0.0189   1.0000   0.0844
 -18.200  -0.5199   0.19046   0.18540   0.0195   1.0000   0.0851
 -18.000  -0.5102   0.18752   0.18244   0.0196   1.0000   0.0866
 -17.900  -0.5071   0.18643   0.18134   0.0194   1.0000   0.0875
 -17.800  -0.5047   0.18542   0.18032   0.0191   1.0000   0.0885
 -17.700  -0.5028   0.18444   0.17933   0.0188   1.0000   0.0896
 -17.600  -0.5013   0.18349   0.17838   0.0183   1.0000   0.0907
 -17.500  -0.5003   0.18258   0.17746   0.0179   1.0000   0.0920
 -17.400  -0.5005   0.18179   0.17667   0.0172   1.0000   0.0934
 -17.300  -0.5037   0.18149   0.17637   0.0162   1.0000   0.0948
 -17.200  -0.5115   0.18210   0.17698   0.0148   1.0000   0.0956
 -17.000  -0.5310   0.18427   0.17917   0.0123   1.0000   0.0961
 -16.900  -0.5138   0.17896   0.17386   0.0130   1.0000   0.0969
 -16.800  -0.4998   0.17592   0.17079   0.0139   1.0000   0.0981
 -16.700  -0.4942   0.17456   0.16943   0.0140   1.0000   0.0993
 -16.600  -0.4907   0.17350   0.16836   0.0140   1.0000   0.1005
 -16.500  -0.4883   0.17253   0.16738   0.0137   1.0000   0.1017
 -16.400  -0.4867   0.17160   0.16645   0.0134   1.0000   0.1031
 -16.300  -0.4860   0.17072   0.16556   0.0129   1.0000   0.1046
 -16.200  -0.4867   0.16998   0.16482   0.0123   1.0000   0.1062
 -16.000  -0.5025   0.17066   0.16551   0.0098   1.0000   0.1086
 -15.900  -0.5149   0.17185   0.16671   0.0085   1.0000   0.1090
 -15.800  -0.5269   0.17283   0.16769   0.0072   1.0000   0.1092
 -15.700  -0.5091   0.16789   0.16275   0.0079   1.0000   0.1099
 -15.600  -0.4928   0.16453   0.15936   0.0087   1.0000   0.1109
 -15.500  -0.4853   0.16292   0.15775   0.0090   1.0000   0.1119
 -15.400  -0.4803   0.16175   0.15657   0.0091   1.0000   0.1133
 -15.300  -0.4772   0.16079   0.15560   0.0090   1.0000   0.1150
 -15.200  -0.4757   0.15992   0.15472   0.0088   1.0000   0.1169
 -15.000  -0.7012   0.18049   0.17494   0.0262   1.0000   0.1100
 -14.900  -0.6869   0.17792   0.17234   0.0277   1.0000   0.1108
 -14.800  -0.6781   0.17618   0.17059   0.0282   1.0000   0.1118
 -14.700  -0.6721   0.17475   0.16914   0.0284   1.0000   0.1129
 -14.600  -0.6676   0.17340   0.16779   0.0282   1.0000   0.1141
 -14.500  -0.6643   0.17209   0.16647   0.0279   1.0000   0.1156
 -14.400  -0.6621   0.17077   0.16516   0.0273   1.0000   0.1175
 -14.300  -0.6628   0.16950   0.16389   0.0262   1.0000   0.1197
 -14.200  -0.6732   0.16875   0.16318   0.0235   1.0000   0.1218
 -14.000  -0.4740   0.14886   0.14363   0.0046   1.0000   0.1336
 -13.900  -0.4848   0.14905   0.14383   0.0037   1.0000   0.1356
 -13.800  -0.5047   0.15028   0.14506   0.0025   1.0000   0.1366
 -13.700  -0.5226   0.15046   0.14527   0.0007   1.0000   0.1371
 -13.500  -0.4993   0.14537   0.14015   0.0019   1.0000   0.1388
 -13.400  -0.4812   0.14330   0.13806   0.0029   1.0000   0.1410
 -13.300  -0.4763   0.14227   0.13701   0.0031   1.0000   0.1431
 -13.200  -0.4754   0.14140   0.13614   0.0030   1.0000   0.1452
 -13.000  -0.6732   0.14897   0.14349   0.0138   1.0000   0.1381
 -12.900  -0.6596   0.14733   0.14181   0.0153   1.0000   0.1389
 -12.800  -0.6502   0.14596   0.14042   0.0162   1.0000   0.1400
 -12.700  -0.6426   0.14474   0.13919   0.0168   1.0000   0.1415
 -12.600  -0.6377   0.14353   0.13797   0.0169   1.0000   0.1436
 -12.500  -0.6362   0.14218   0.13662   0.0164   1.0000   0.1461
 -12.400  -0.6411   0.14060   0.13505   0.0150   1.0000   0.1491
 -12.300  -0.6630   0.13851   0.13303   0.0106   1.0000   0.1513
 -12.200  -0.6820   0.13611   0.13069   0.0068   1.0000   0.1518
 -12.000  -0.7773   0.09396   0.08859  -0.0169   1.0000   0.0851
 -11.900  -0.7753   0.09266   0.08729  -0.0169   1.0000   0.0854
 -11.800  -0.7735   0.09140   0.08603  -0.0170   1.0000   0.0859
 -11.700  -0.7720   0.09011   0.08475  -0.0172   1.0000   0.0865
 -11.600  -0.7688   0.08932   0.08395  -0.0170   1.0000   0.0874
 -11.500  -0.7623   0.08931   0.08394  -0.0163   1.0000   0.0887
 -11.400  -0.8703   0.07019   0.06452  -0.0318   1.0000   0.0798
 -11.300  -0.8853   0.06760   0.06185  -0.0324   1.0000   0.0793
 -11.200  -0.8999   0.06530   0.05946  -0.0325   1.0000   0.0788
 -11.000  -0.9270   0.06131   0.05528  -0.0310   1.0000   0.0780
 -10.900  -0.9387   0.05943   0.05327  -0.0300   1.0000   0.0777
 -10.800  -0.9483   0.05751   0.05120  -0.0290   1.0000   0.0774
 -10.700  -0.9559   0.05568   0.04922  -0.0281   1.0000   0.0773
 -10.600  -0.9616   0.05395   0.04734  -0.0271   1.0000   0.0773
 -10.500  -0.9651   0.05239   0.04564  -0.0262   1.0000   0.0774
 -10.400  -0.9668   0.05099   0.04410  -0.0253   1.0000   0.0778
 -10.300  -0.9675   0.04967   0.04263  -0.0244   1.0000   0.0783
 -10.200  -0.9676   0.04839   0.04121  -0.0236   1.0000   0.0789
 -10.000  -0.9668   0.04587   0.03837  -0.0217   1.0000   0.0803
  -9.900  -0.9659   0.04463   0.03695  -0.0208   1.0000   0.0810
  -9.800  -0.9645   0.04342   0.03554  -0.0198   1.0000   0.0817
  -9.700  -0.9627   0.04225   0.03416  -0.0188   1.0000   0.0824
  -9.600  -0.9604   0.04115   0.03283  -0.0178   1.0000   0.0830
  -9.500  -0.9575   0.04015   0.03159  -0.0168   1.0000   0.0836
  -9.400  -0.9534   0.03891   0.03020  -0.0160   1.0000   0.0843
  -9.300  -0.9458   0.03757   0.02888  -0.0159   1.0000   0.0854
  -9.200  -0.9380   0.03679   0.02812  -0.0156   1.0000   0.0867
  -9.000  -0.9229   0.03553   0.02682  -0.0147   1.0000   0.0898
  -8.900  -0.9161   0.03484   0.02603  -0.0142   1.0000   0.0915
  -8.800  -0.9096   0.03409   0.02513  -0.0135   1.0000   0.0931
  -8.700  -0.9034   0.03335   0.02420  -0.0127   1.0000   0.0946
  -8.600  -0.8972   0.03270   0.02332  -0.0119   1.0000   0.0959
  -8.500  -0.8885   0.03155   0.02221  -0.0117   1.0000   0.0976
  -8.400  -0.8795   0.03089   0.02162  -0.0115   1.0000   0.0996
  -8.300  -0.8713   0.03038   0.02112  -0.0111   1.0000   0.1018
  -8.200  -0.8634   0.02986   0.02053  -0.0106   1.0000   0.1043
  -8.000  -0.8481   0.02881   0.01917  -0.0093   1.0000   0.1090
  -7.900  -0.8386   0.02788   0.01835  -0.0092   1.0000   0.1115
  -7.800  -0.8298   0.02737   0.01789  -0.0089   1.0000   0.1142
  -7.700  -0.8214   0.02692   0.01743  -0.0084   1.0000   0.1173
  -7.600  -0.8135   0.02648   0.01688  -0.0078   1.0000   0.1208
  -7.500  -0.8051   0.02589   0.01622  -0.0073   1.0000   0.1241
  -7.400  -0.7961   0.02531   0.01577  -0.0071   1.0000   0.1274
  -7.300  -0.7878   0.02490   0.01537  -0.0066   1.0000   0.1314
  -7.200  -0.7798   0.02451   0.01487  -0.0060   1.0000   0.1359
  -7.000  -0.7631   0.02352   0.01402  -0.0051   1.0000   0.1447
  -6.900  -0.7550   0.02315   0.01356  -0.0045   1.0000   0.1503
  -6.800  -0.7470   0.02263   0.01312  -0.0040   1.0000   0.1554
  -6.700  -0.7391   0.02226   0.01281  -0.0035   1.0000   0.1615
  -6.600  -0.7312   0.02185   0.01237  -0.0029   1.0000   0.1683
  -6.500  -0.7236   0.02144   0.01207  -0.0023   1.0000   0.1748
  -6.400  -0.7158   0.02108   0.01167  -0.0017   1.0000   0.1831
  -6.300  -0.7084   0.02068   0.01140  -0.0011   1.0000   0.1908
  -6.200  -0.7009   0.02030   0.01105  -0.0005   1.0000   0.2002
  -6.000  -0.6863   0.01958   0.01048   0.0008   1.0000   0.2201
  -5.900  -0.6790   0.01924   0.01019   0.0015   1.0000   0.2320
  -5.800  -0.6717   0.01894   0.00992   0.0022   1.0000   0.2451
  -5.700  -0.6646   0.01860   0.00969   0.0028   1.0000   0.2579
  -5.600  -0.6575   0.01828   0.00948   0.0035   1.0000   0.2715
  -5.500  -0.6504   0.01798   0.00927   0.0042   1.0000   0.2860
  -5.400  -0.6433   0.01770   0.00908   0.0049   1.0000   0.3013
  -5.300  -0.6361   0.01744   0.00890   0.0056   1.0000   0.3169
  -5.200  -0.6288   0.01719   0.00874   0.0063   1.0000   0.3330
  -5.000  -0.6142   0.01674   0.00844   0.0077   1.0000   0.3655
  -4.900  -0.6067   0.01654   0.00831   0.0084   1.0000   0.3817
  -4.800  -0.5992   0.01635   0.00820   0.0091   1.0000   0.3980
  -4.700  -0.5916   0.01617   0.00809   0.0098   1.0000   0.4142
  -4.600  -0.5839   0.01601   0.00799   0.0105   1.0000   0.4302
  -4.500  -0.5762   0.01585   0.00790   0.0112   1.0000   0.4461
  -4.400  -0.5684   0.01570   0.00782   0.0118   1.0000   0.4619
  -4.300  -0.5605   0.01556   0.00774   0.0125   1.0000   0.4776
  -4.200  -0.5526   0.01543   0.00766   0.0132   1.0000   0.4932
  -4.000  -0.5366   0.01519   0.00753   0.0145   1.0000   0.5244
  -3.900  -0.5285   0.01509   0.00747   0.0152   1.0000   0.5398
  -3.800  -0.5204   0.01498   0.00744   0.0159   1.0000   0.5544
  -3.700  -0.5122   0.01488   0.00741   0.0165   1.0000   0.5690
  -3.600  -0.5040   0.01479   0.00738   0.0172   1.0000   0.5835
  -3.500  -0.4957   0.01471   0.00736   0.0179   1.0000   0.5981
  -3.400  -0.4875   0.01463   0.00733   0.0186   1.0000   0.6127
  -3.300  -0.4792   0.01456   0.00731   0.0193   1.0000   0.6274
  -3.200  -0.4710   0.01450   0.00730   0.0199   1.0000   0.6422
  -3.000  -0.4545   0.01440   0.00731   0.0214   1.0000   0.6709
  -2.900  -0.4462   0.01436   0.00733   0.0221   1.0000   0.6846
  -2.800  -0.4380   0.01433   0.00736   0.0229   1.0000   0.6985
  -2.700  -0.4298   0.01431   0.00738   0.0236   1.0000   0.7125
  -2.600  -0.4217   0.01430   0.00740   0.0244   1.0000   0.7268
  -2.500  -0.4137   0.01429   0.00743   0.0252   1.0000   0.7412
  -2.400  -0.4055   0.01431   0.00749   0.0260   1.0000   0.7545
  -2.300  -0.3973   0.01433   0.00757   0.0269   1.0000   0.7676
  -2.200  -0.3893   0.01436   0.00764   0.0277   1.0000   0.7810
  -2.000  -0.3737   0.01444   0.00778   0.0295   1.0000   0.8088
  -1.900  -0.3657   0.01452   0.00788   0.0304   1.0000   0.8218
  -1.800  -0.3574   0.01461   0.00800   0.0312   1.0000   0.8343
  -1.700  -0.3490   0.01470   0.00810   0.0320   1.0000   0.8473
  -1.600  -0.3406   0.01479   0.00821   0.0328   1.0000   0.8608
  -1.500  -0.3320   0.01489   0.00832   0.0335   1.0000   0.8747
  -1.400  -0.3203   0.01505   0.00849   0.0338   1.0000   0.8863
  -1.300  -0.3077   0.01521   0.00864   0.0337   1.0000   0.8983
  -1.200  -0.2944   0.01536   0.00879   0.0335   1.0000   0.9108
  -1.000  -0.2578   0.01574   0.00913   0.0309   1.0000   0.9317
  -0.900  -0.2384   0.01591   0.00929   0.0293   1.0000   0.9422
  -0.800  -0.2135   0.01611   0.00946   0.0267   1.0000   0.9498
  -0.700  -0.1895   0.01628   0.00961   0.0241   1.0000   0.9581
  -0.600  -0.1605   0.01645   0.00975   0.0205   1.0000   0.9638
  -0.500  -0.1345   0.01658   0.00986   0.0174   1.0000   0.9712
  -0.400  -0.1057   0.01670   0.00996   0.0137   1.0000   0.9764
  -0.300  -0.0794   0.01679   0.01004   0.0104   1.0000   0.9835
  -0.200  -0.0513   0.01685   0.01010   0.0067   1.0000   0.9889
   0.000   0.0000   0.01694   0.01018  -0.0000   1.0000   1.0000
   0.100   0.0237   0.01691   0.01015  -0.0031   0.9950   1.0000
   0.200   0.0513   0.01685   0.01010  -0.0067   0.9889   1.0000
   0.300   0.0794   0.01679   0.01004  -0.0104   0.9835   1.0000
   0.400   0.1057   0.01669   0.00996  -0.0137   0.9764   1.0000
   0.500   0.1345   0.01658   0.00986  -0.0174   0.9712   1.0000
   0.600   0.1604   0.01645   0.00975  -0.0205   0.9638   1.0000
   0.700   0.1895   0.01628   0.00961  -0.0241   0.9581   1.0000
   0.800   0.2134   0.01611   0.00946  -0.0267   0.9498   1.0000
   1.000   0.2578   0.01574   0.00913  -0.0309   0.9317   1.0000
   1.100   0.2790   0.01553   0.00894  -0.0327   0.9228   1.0000
   1.200   0.2944   0.01536   0.00879  -0.0334   0.9108   1.0000
   1.300   0.3077   0.01520   0.00864  -0.0337   0.8983   1.0000
   1.400   0.3203   0.01505   0.00848  -0.0337   0.8863   1.0000
   1.500   0.3320   0.01489   0.00831  -0.0335   0.8747   1.0000
   1.600   0.3405   0.01479   0.00821  -0.0328   0.8609   1.0000
   1.700   0.3489   0.01470   0.00810  -0.0320   0.8473   1.0000
   1.800   0.3573   0.01460   0.00800  -0.0312   0.8343   1.0000
   2.000   0.3736   0.01444   0.00777  -0.0294   0.8088   1.0000
   2.100   0.3814   0.01440   0.00770  -0.0286   0.7947   1.0000
   2.200   0.3892   0.01436   0.00764  -0.0277   0.7810   1.0000
   2.300   0.3973   0.01433   0.00757  -0.0269   0.7676   1.0000
   2.400   0.4054   0.01430   0.00749  -0.0260   0.7545   1.0000
   2.500   0.4136   0.01429   0.00743  -0.0252   0.7412   1.0000
   2.600   0.4217   0.01430   0.00740  -0.0244   0.7268   1.0000
   2.700   0.4298   0.01431   0.00738  -0.0236   0.7125   1.0000
   2.800   0.4379   0.01433   0.00735  -0.0229   0.6985   1.0000
   3.000   0.4545   0.01440   0.00730  -0.0214   0.6709   1.0000
   3.100   0.4628   0.01444   0.00728  -0.0206   0.6571   1.0000
   3.200   0.4709   0.01450   0.00730  -0.0199   0.6422   1.0000
   3.300   0.4792   0.01456   0.00731  -0.0193   0.6274   1.0000
   3.400   0.4874   0.01463   0.00733  -0.0186   0.6127   1.0000
   3.500   0.4957   0.01471   0.00736  -0.0179   0.5981   1.0000
   3.600   0.5039   0.01479   0.00738  -0.0172   0.5836   1.0000
   3.700   0.5121   0.01488   0.00741  -0.0165   0.5691   1.0000
   3.800   0.5203   0.01498   0.00744  -0.0158   0.5545   1.0000
   4.000   0.5365   0.01519   0.00753  -0.0145   0.5244   1.0000
   4.100   0.5445   0.01531   0.00759  -0.0138   0.5089   1.0000
   4.200   0.5525   0.01543   0.00766  -0.0132   0.4933   1.0000
   4.300   0.5604   0.01556   0.00774  -0.0125   0.4777   1.0000
   4.400   0.5683   0.01570   0.00782  -0.0118   0.4620   1.0000
   4.500   0.5761   0.01585   0.00790  -0.0112   0.4461   1.0000
   4.600   0.5839   0.01600   0.00799  -0.0105   0.4302   1.0000
   4.700   0.5915   0.01617   0.00809  -0.0098   0.4142   1.0000
   4.800   0.5991   0.01635   0.00820  -0.0091   0.3981   1.0000
   5.000   0.6141   0.01674   0.00844  -0.0077   0.3656   1.0000
   5.100   0.6215   0.01696   0.00858  -0.0070   0.3492   1.0000
   5.200   0.6288   0.01719   0.00874  -0.0063   0.3330   1.0000
   5.300   0.6360   0.01744   0.00890  -0.0056   0.3170   1.0000
   5.400   0.6432   0.01770   0.00908  -0.0049   0.3013   1.0000
   5.500   0.6504   0.01798   0.00927  -0.0042   0.2861   1.0000
   5.600   0.6575   0.01828   0.00948  -0.0035   0.2715   1.0000
   5.700   0.6645   0.01860   0.00969  -0.0028   0.2580   1.0000
   5.800   0.6716   0.01893   0.00992  -0.0022   0.2452   1.0000
   6.000   0.6863   0.01958   0.01047  -0.0008   0.2201   1.0000
   6.100   0.6935   0.01996   0.01076  -0.0002   0.2101   1.0000
   6.200   0.7009   0.02030   0.01105   0.0005   0.2002   1.0000
   6.300   0.7084   0.02068   0.01140   0.0011   0.1908   1.0000
   6.400   0.7157   0.02108   0.01167   0.0017   0.1831   1.0000
   6.500   0.7236   0.02144   0.01207   0.0023   0.1749   1.0000
   6.600   0.7312   0.02185   0.01236   0.0029   0.1683   1.0000
   6.700   0.7391   0.02226   0.01281   0.0035   0.1615   1.0000
   6.800   0.7470   0.02263   0.01312   0.0040   0.1555   1.0000
   7.000   0.7631   0.02351   0.01402   0.0051   0.1447   1.0000
   7.100   0.7713   0.02392   0.01435   0.0056   0.1401   1.0000
   7.200   0.7798   0.02451   0.01487   0.0060   0.1359   1.0000
   7.300   0.7878   0.02489   0.01537   0.0066   0.1314   1.0000
   7.400   0.7961   0.02531   0.01577   0.0071   0.1274   1.0000
   7.500   0.8051   0.02589   0.01621   0.0073   0.1241   1.0000
   7.600   0.8135   0.02648   0.01688   0.0078   0.1208   1.0000
   7.700   0.8214   0.02692   0.01743   0.0084   0.1174   1.0000
   7.800   0.8298   0.02737   0.01789   0.0089   0.1142   1.0000
   8.000   0.8481   0.02881   0.01917   0.0093   0.1090   1.0000
   8.100   0.8556   0.02930   0.01986   0.0100   0.1067   1.0000
   8.200   0.8634   0.02986   0.02053   0.0106   0.1043   1.0000
   8.300   0.8713   0.03038   0.02111   0.0111   0.1018   1.0000
   8.400   0.8795   0.03088   0.02162   0.0115   0.0996   1.0000
   8.500   0.8885   0.03155   0.02221   0.0117   0.0976   1.0000
   8.600   0.8972   0.03270   0.02332   0.0119   0.0959   1.0000
   8.700   0.9034   0.03335   0.02420   0.0127   0.0946   1.0000
   8.800   0.9097   0.03409   0.02513   0.0135   0.0931   1.0000
   9.000   0.9230   0.03553   0.02682   0.0147   0.0898   1.0000
   9.100   0.9306   0.03616   0.02747   0.0152   0.0882   1.0000
   9.200   0.9381   0.03679   0.02812   0.0156   0.0867   1.0000
   9.300   0.9459   0.03757   0.02888   0.0158   0.0854   1.0000
   9.400   0.9535   0.03892   0.03021   0.0160   0.0843   1.0000
   9.500   0.9576   0.04015   0.03160   0.0168   0.0836   1.0000
   9.600   0.9604   0.04115   0.03284   0.0178   0.0830   1.0000
   9.700   0.9627   0.04225   0.03416   0.0188   0.0824   1.0000
   9.800   0.9646   0.04342   0.03554   0.0198   0.0817   1.0000
  10.000   0.9669   0.04588   0.03838   0.0217   0.0803   1.0000
  10.100   0.9675   0.04713   0.03980   0.0226   0.0795   1.0000
  10.200   0.9677   0.04839   0.04122   0.0235   0.0789   1.0000
  10.300   0.9676   0.04967   0.04263   0.0244   0.0783   1.0000
  10.400   0.9670   0.05099   0.04410   0.0253   0.0778   1.0000
  10.500   0.9653   0.05240   0.04565   0.0261   0.0774   1.0000
  10.600   0.9618   0.05397   0.04736   0.0271   0.0773   1.0000
  10.700   0.9561   0.05569   0.04924   0.0280   0.0773   1.0000
  10.800   0.9485   0.05753   0.05122   0.0290   0.0774   1.0000
  11.000   0.9273   0.06134   0.05531   0.0309   0.0780   1.0000
  11.100   0.9141   0.06325   0.05731   0.0319   0.0784   1.0000
  11.200   0.9001   0.06535   0.05951   0.0324   0.0788   1.0000
  11.300   0.8855   0.06767   0.06192   0.0323   0.0793   1.0000
  11.400   0.8706   0.07026   0.06459   0.0316   0.0798   1.0000
  11.500   0.8553   0.07316   0.06756   0.0304   0.0804   1.0000
  11.600   0.8395   0.07645   0.07092   0.0285   0.0810   1.0000
  11.700   0.8250   0.07997   0.07449   0.0263   0.0816   1.0000
  11.800   0.8126   0.08353   0.07808   0.0241   0.0822   1.0000
  12.000   0.7976   0.08983   0.08439   0.0208   0.0831   1.0000
  12.100   0.7941   0.09247   0.08704   0.0198   0.0835   1.0000
  12.200   0.7943   0.09462   0.08918   0.0195   0.0838   1.0000
  12.400   0.4822   0.13172   0.12647  -0.0003   0.1567   1.0000
  12.500   0.4879   0.13296   0.12771  -0.0001   0.1551   1.0000
  12.600   0.4974   0.13433   0.12911   0.0005   0.1538   1.0000
  12.700   0.5192   0.13630   0.13112   0.0022   0.1525   1.0000
  12.800   0.5258   0.13866   0.13347   0.0026   0.1518   1.0000
  13.100   0.6937   0.15176   0.14631  -0.0113   0.1373   1.0000
  13.200   0.6770   0.15359   0.14808  -0.0150   0.1369   1.0000
  13.300   0.6529   0.15492   0.14934  -0.0199   0.1349   1.0000
  13.400   0.6476   0.15626   0.15067  -0.0216   0.1324   1.0000
  13.500   0.6481   0.15765   0.15205  -0.0223   0.1304   1.0000
  13.600   0.6507   0.15900   0.15341  -0.0227   0.1286   1.0000
  13.700   0.6553   0.16031   0.15472  -0.0227   0.1270   1.0000
  13.800   0.6634   0.16168   0.15611  -0.0222   0.1255   1.0000
  14.000   0.4728   0.14852   0.14330  -0.0045   0.1336   1.0000
  14.100   0.4702   0.14916   0.14394  -0.0050   0.1316   1.0000
  14.200   0.4703   0.15000   0.14478  -0.0053   0.1298   1.0000
  14.300   0.4720   0.15092   0.14571  -0.0055   0.1282   1.0000
  14.400   0.4753   0.15195   0.14674  -0.0055   0.1268   1.0000
  14.500   0.4810   0.15322   0.14802  -0.0053   0.1255   1.0000
  14.600   0.4940   0.15544   0.15026  -0.0047   0.1243   1.0000
  14.700   0.6736   0.17491   0.16930  -0.0286   0.1128   1.0000
  14.800   0.6798   0.17636   0.17077  -0.0284   0.1117   1.0000
  15.000   0.7035   0.18076   0.17522  -0.0262   0.1099   1.0000
  15.100   0.7198   0.18447   0.17896  -0.0240   0.1093   1.0000
  15.200   0.7102   0.18538   0.17982  -0.0270   0.1090   1.0000
  15.300   0.6975   0.18550   0.17990  -0.0303   0.1084   1.0000
  15.400   0.6880   0.18572   0.18009  -0.0332   0.1068   1.0000
  15.500   0.6873   0.18688   0.18124  -0.0346   0.1049   1.0000
  15.600   0.6893   0.18817   0.18253  -0.0354   0.1032   1.0000
  15.700   0.6923   0.18946   0.18382  -0.0359   0.1016   1.0000
  15.800   0.6963   0.19073   0.18510  -0.0362   0.1002   1.0000
  16.000   0.5017   0.17035   0.16520  -0.0096   0.1087   1.0000
  16.100   0.4906   0.16946   0.16431  -0.0110   0.1078   1.0000
  16.200   0.4856   0.16960   0.16444  -0.0121   0.1063   1.0000
  16.300   0.4848   0.17034   0.16518  -0.0128   0.1046   1.0000
  16.400   0.4855   0.17122   0.16607  -0.0132   0.1032   1.0000
  16.500   0.4870   0.17214   0.16699  -0.0136   0.1018   1.0000
  16.600   0.4894   0.17311   0.16797  -0.0138   0.1005   1.0000
  16.700   0.4929   0.17416   0.16903  -0.0139   0.0993   1.0000
  16.800   0.4983   0.17549   0.17037  -0.0137   0.0981   1.0000
  17.300   0.5028   0.18115   0.17603  -0.0160   0.0949   1.0000
  17.400   0.4993   0.18139   0.17627  -0.0170   0.0935   1.0000
  17.500   0.4991   0.18216   0.17705  -0.0177   0.0921   1.0000
  17.600   0.5000   0.18306   0.17795  -0.0182   0.0908   1.0000
  17.700   0.5015   0.18401   0.17891  -0.0186   0.0896   1.0000
  17.800   0.5034   0.18499   0.17989  -0.0189   0.0886   1.0000
  18.000   0.5088   0.18707   0.18199  -0.0194   0.0867   1.0000
  18.100   0.5127   0.18831   0.18324  -0.0194   0.0859   1.0000
  18.200   0.5182   0.18995   0.18489  -0.0193   0.0852   1.0000
  18.300   0.5284   0.19294   0.18789  -0.0188   0.0845   1.0000
  18.400   0.5430   0.19815   0.19310  -0.0182   0.0839   1.0000
  18.500   0.5352   0.19708   0.19203  -0.0193   0.0838   1.0000
  18.600   0.5280   0.19616   0.19110  -0.0206   0.0835   1.0000
  18.700   0.5218   0.19554   0.19048  -0.0219   0.0830   1.0000
  18.800   0.5186   0.19565   0.19059  -0.0230   0.0820   1.0000
  19.000   0.5192   0.19727   0.19222  -0.0243   0.0793   1.0000
  19.100   0.5207   0.19822   0.19318  -0.0248   0.0781   1.0000
  19.200   0.5226   0.19919   0.19416  -0.0252   0.0770   1.0000
  19.300   0.5250   0.20020   0.19517  -0.0255   0.0760   1.0000
  19.400   0.5278   0.20128   0.19626  -0.0257   0.0752   1.0000
  19.500   0.5312   0.20250   0.19749  -0.0259   0.0745   1.0000
  19.600   0.5356   0.20403   0.19902  -0.0259   0.0739   1.0000
  19.700   0.5426   0.20640   0.20141  -0.0256   0.0733   1.0000
  19.800   0.5597   0.21265   0.20767  -0.0246   0.0728   1.0000
  20.000   0.5488   0.21113   0.20615  -0.0268   0.0725   1.0000
  20.100   0.5444   0.21069   0.20571  -0.0279   0.0723   1.0000
  20.200   0.5412   0.21063   0.20565  -0.0291   0.0718   1.0000
  20.300   0.5399   0.21111   0.20613  -0.0300   0.0710   1.0000
  20.400   0.5402   0.21194   0.20696  -0.0307   0.0701   1.0000
  20.500   0.5412   0.21289   0.20792  -0.0313   0.0692   1.0000
  20.600   0.5426   0.21389   0.20893  -0.0318   0.0683   1.0000
  20.700   0.5442   0.21491   0.20995  -0.0323   0.0674   1.0000
  20.800   0.5460   0.21592   0.21097  -0.0327   0.0666   1.0000
