  
       XFOIL         Version 6.99
  
 Calculated polar for: NACA 0012                                       
  
 1 1 Reynolds number fixed          Mach number fixed         
  
 xtrf =   1.000 (top)        1.000 (bottom)  
 Mach =   0.000     Re =     1.200 e 6     Ncrit =   9.000
  
   alpha    CL        CD       CDp       CM     Top_Xtr  Bot_Xtr
  ------ -------- --------- --------- -------- -------- --------
 -20.000  -1.1544   0.14046   0.13803   0.0195   1.0000   0.0123
 -19.900  -1.1631   0.13708   0.13460   0.0176   1.0000   0.0123
 -19.800  -1.1699   0.13414   0.13163   0.0160   1.0000   0.0123
 -19.700  -1.1788   0.13082   0.12827   0.0141   1.0000   0.0124
 -19.600  -1.1868   0.12771   0.12512   0.0125   1.0000   0.0124
 -19.500  -1.1960   0.12439   0.12176   0.0107   1.0000   0.0124
 -19.400  -1.2047   0.12118   0.11850   0.0089   1.0000   0.0124
 -19.300  -1.2146   0.11776   0.11505   0.0071   1.0000   0.0124
 -19.200  -1.2240   0.11448   0.11172   0.0054   1.0000   0.0124
 -19.000  -1.2449   0.10767   0.10482   0.0019   1.0000   0.0124
 -18.900  -1.2560   0.10420   0.10130   0.0001   1.0000   0.0124
 -18.800  -1.2672   0.10069   0.09773  -0.0017   1.0000   0.0124
 -18.700  -1.2777   0.09735   0.09434  -0.0034   1.0000   0.0124
 -18.600  -1.2888   0.09396   0.09090  -0.0051   1.0000   0.0124
 -18.500  -1.2996   0.09062   0.08751  -0.0068   1.0000   0.0124
 -18.400  -1.3112   0.08721   0.08405  -0.0086   1.0000   0.0124
 -18.300  -1.3221   0.08392   0.08070  -0.0102   1.0000   0.0124
 -18.200  -1.3321   0.08078   0.07750  -0.0118   1.0000   0.0124
 -18.000  -1.3520   0.07465   0.07127  -0.0149   1.0000   0.0125
 -17.900  -1.3614   0.07171   0.06828  -0.0164   1.0000   0.0125
 -17.800  -1.3696   0.06897   0.06549  -0.0178   1.0000   0.0125
 -17.700  -1.3771   0.06637   0.06283  -0.0191   1.0000   0.0125
 -17.600  -1.3848   0.06376   0.06016  -0.0204   1.0000   0.0125
 -17.500  -1.3914   0.06134   0.05769  -0.0216   1.0000   0.0125
 -17.400  -1.3976   0.05901   0.05531  -0.0227   1.0000   0.0126
 -17.300  -1.4030   0.05681   0.05305  -0.0238   1.0000   0.0126
 -17.200  -1.4076   0.05473   0.05092  -0.0248   1.0000   0.0126
 -17.000  -1.4154   0.05086   0.04696  -0.0266   1.0000   0.0127
 -16.900  -1.4185   0.04908   0.04513  -0.0274   1.0000   0.0127
 -16.800  -1.4212   0.04739   0.04339  -0.0282   1.0000   0.0128
 -16.700  -1.4234   0.04579   0.04175  -0.0288   1.0000   0.0128
 -16.600  -1.4248   0.04431   0.04022  -0.0294   1.0000   0.0129
 -16.500  -1.4261   0.04288   0.03875  -0.0300   1.0000   0.0129
 -16.400  -1.4270   0.04152   0.03735  -0.0304   1.0000   0.0130
 -16.300  -1.4277   0.04023   0.03602  -0.0308   1.0000   0.0130
 -16.200  -1.4279   0.03905   0.03479  -0.0311   1.0000   0.0131
 -16.000  -1.4271   0.03687   0.03253  -0.0315   1.0000   0.0132
 -15.900  -1.4263   0.03587   0.03149  -0.0316   1.0000   0.0133
 -15.800  -1.4252   0.03492   0.03050  -0.0317   1.0000   0.0133
 -15.700  -1.4238   0.03405   0.02959  -0.0316   1.0000   0.0134
 -15.600  -1.4223   0.03320   0.02870  -0.0316   1.0000   0.0135
 -15.500  -1.4199   0.03246   0.02792  -0.0314   1.0000   0.0135
 -15.400  -1.4173   0.03176   0.02718  -0.0313   1.0000   0.0136
 -15.300  -1.4148   0.03107   0.02646  -0.0311   1.0000   0.0136
 -15.200  -1.4115   0.03047   0.02583  -0.0308   1.0000   0.0137
 -15.000  -1.4048   0.02933   0.02462  -0.0302   1.0000   0.0138
 -14.900  -1.4085   0.02823   0.02346  -0.0295   1.0000   0.0139
 -14.800  -1.4100   0.02735   0.02254  -0.0288   1.0000   0.0141
 -14.700  -1.4096   0.02664   0.02178  -0.0281   1.0000   0.0142
 -14.600  -1.4082   0.02602   0.02114  -0.0274   1.0000   0.0143
 -14.500  -1.4059   0.02549   0.02058  -0.0266   1.0000   0.0145
 -14.400  -1.4030   0.02501   0.02007  -0.0259   1.0000   0.0146
 -14.300  -1.3994   0.02459   0.01963  -0.0253   1.0000   0.0147
 -14.200  -1.3954   0.02419   0.01922  -0.0246   1.0000   0.0148
 -14.000  -1.3868   0.02348   0.01846  -0.0232   1.0000   0.0151
 -13.900  -1.3822   0.02315   0.01811  -0.0224   1.0000   0.0152
 -13.800  -1.3774   0.02284   0.01778  -0.0217   1.0000   0.0153
 -13.700  -1.3726   0.02254   0.01745  -0.0210   1.0000   0.0154
 -13.600  -1.3677   0.02225   0.01713  -0.0202   1.0000   0.0155
 -13.500  -1.3626   0.02197   0.01683  -0.0194   1.0000   0.0157
 -13.400  -1.3574   0.02169   0.01654  -0.0186   1.0000   0.0158
 -13.300  -1.3516   0.02144   0.01626  -0.0180   1.0000   0.0159
 -13.200  -1.3451   0.02117   0.01597  -0.0174   1.0000   0.0161
 -13.000  -1.3313   0.02068   0.01542  -0.0164   1.0000   0.0163
 -12.900  -1.3240   0.02045   0.01516  -0.0159   1.0000   0.0165
 -12.800  -1.3164   0.02023   0.01492  -0.0155   1.0000   0.0166
 -12.700  -1.3087   0.02002   0.01469  -0.0150   1.0000   0.0167
 -12.600  -1.3007   0.01983   0.01448  -0.0147   1.0000   0.0167
 -12.500  -1.2964   0.01934   0.01395  -0.0138   1.0000   0.0170
 -12.400  -1.2905   0.01895   0.01354  -0.0132   1.0000   0.0173
 -12.300  -1.2837   0.01864   0.01322  -0.0126   1.0000   0.0175
 -12.200  -1.2762   0.01838   0.01295  -0.0122   1.0000   0.0178
 -12.000  -1.2603   0.01793   0.01246  -0.0113   1.0000   0.0182
 -11.900  -1.2520   0.01772   0.01225  -0.0110   1.0000   0.0184
 -11.800  -1.2436   0.01753   0.01204  -0.0106   1.0000   0.0186
 -11.700  -1.2351   0.01734   0.01184  -0.0103   1.0000   0.0189
 -11.600  -1.2264   0.01715   0.01164  -0.0100   1.0000   0.0191
 -11.500  -1.2177   0.01698   0.01145  -0.0096   1.0000   0.0193
 -11.400  -1.2088   0.01682   0.01127  -0.0093   1.0000   0.0196
 -11.300  -1.1999   0.01666   0.01110  -0.0090   1.0000   0.0198
 -11.200  -1.1908   0.01652   0.01094  -0.0087   1.0000   0.0200
 -11.000  -1.1746   0.01603   0.01041  -0.0079   1.0000   0.0206
 -10.900  -1.1668   0.01576   0.01012  -0.0074   1.0000   0.0210
 -10.800  -1.1584   0.01554   0.00990  -0.0070   1.0000   0.0213
 -10.700  -1.1497   0.01535   0.00971  -0.0067   1.0000   0.0217
 -10.600  -1.1408   0.01518   0.00953  -0.0063   1.0000   0.0220
 -10.500  -1.1319   0.01502   0.00936  -0.0060   1.0000   0.0223
 -10.400  -1.1229   0.01487   0.00920  -0.0057   1.0000   0.0226
 -10.300  -1.1138   0.01472   0.00904  -0.0053   1.0000   0.0230
 -10.200  -1.1047   0.01458   0.00889  -0.0050   1.0000   0.0233
 -10.000  -1.0864   0.01432   0.00860  -0.0044   1.0000   0.0238
  -9.900  -1.0774   0.01419   0.00846  -0.0040   1.0000   0.0241
  -9.800  -1.0698   0.01393   0.00818  -0.0034   1.0000   0.0247
  -9.700  -1.0615   0.01373   0.00798  -0.0029   1.0000   0.0253
  -9.600  -1.0530   0.01357   0.00782  -0.0025   1.0000   0.0258
  -9.500  -1.0444   0.01343   0.00768  -0.0021   1.0000   0.0263
  -9.400  -1.0356   0.01330   0.00755  -0.0016   1.0000   0.0267
  -9.300  -1.0268   0.01318   0.00743  -0.0012   1.0000   0.0272
  -9.200  -1.0179   0.01307   0.00731  -0.0008   1.0000   0.0277
  -9.000  -0.9999   0.01288   0.00709  -0.0000   1.0000   0.0284
  -8.900  -0.9922   0.01266   0.00687   0.0006   1.0000   0.0293
  -8.800  -0.9841   0.01250   0.00671   0.0012   1.0000   0.0300
  -8.700  -0.9757   0.01236   0.00658   0.0017   1.0000   0.0307
  -8.600  -0.9672   0.01224   0.00646   0.0022   1.0000   0.0314
  -8.500  -0.9586   0.01213   0.00634   0.0026   1.0000   0.0320
  -8.400  -0.9500   0.01203   0.00623   0.0031   1.0000   0.0326
  -8.300  -0.9413   0.01194   0.00613   0.0036   1.0000   0.0331
  -8.200  -0.9327   0.01185   0.00603   0.0041   1.0000   0.0336
  -8.000  -0.9167   0.01154   0.00574   0.0053   1.0000   0.0358
  -7.900  -0.9084   0.01142   0.00563   0.0058   1.0000   0.0368
  -7.800  -0.8999   0.01132   0.00553   0.0063   1.0000   0.0377
  -7.700  -0.8914   0.01123   0.00544   0.0068   1.0000   0.0386
  -7.600  -0.8827   0.01116   0.00536   0.0073   1.0000   0.0392
  -7.500  -0.8746   0.01102   0.00522   0.0079   1.0000   0.0407
  -7.400  -0.8664   0.01090   0.00511   0.0084   1.0000   0.0420
  -7.300  -0.8566   0.01078   0.00500   0.0086   0.9999   0.0434
  -7.200  -0.8431   0.01067   0.00490   0.0081   0.9994   0.0448
  -7.000  -0.8162   0.01044   0.00467   0.0070   0.9983   0.0483
  -6.900  -0.8029   0.01030   0.00456   0.0064   0.9977   0.0505
  -6.800  -0.7893   0.01019   0.00446   0.0059   0.9971   0.0525
  -6.700  -0.7755   0.01010   0.00437   0.0053   0.9965   0.0543
  -6.600  -0.7621   0.00995   0.00425   0.0047   0.9959   0.0577
  -6.500  -0.7484   0.00984   0.00415   0.0041   0.9953   0.0604
  -6.400  -0.7344   0.00975   0.00407   0.0034   0.9948   0.0625
  -6.300  -0.7206   0.00961   0.00396   0.0028   0.9943   0.0665
  -6.200  -0.7067   0.00949   0.00387   0.0021   0.9939   0.0701
  -6.000  -0.6808   0.00926   0.00368   0.0013   0.9921   0.0780
  -5.900  -0.6677   0.00914   0.00359   0.0008   0.9910   0.0822
  -5.800  -0.6544   0.00904   0.00350   0.0003   0.9900   0.0867
  -5.700  -0.6411   0.00890   0.00341  -0.0002   0.9891   0.0921
  -5.500  -0.6138   0.00867   0.00323  -0.0014   0.9873   0.1036
  -5.400  -0.5999   0.00857   0.00315  -0.0020   0.9866   0.1091
  -5.300  -0.5860   0.00842   0.00306  -0.0027   0.9858   0.1172
  -5.000  -0.5445   0.00808   0.00282  -0.0045   0.9834   0.1394
  -4.900  -0.5318   0.00795   0.00274  -0.0049   0.9820   0.1485
  -4.800  -0.5207   0.00784   0.00267  -0.0049   0.9794   0.1564
  -4.700  -0.5087   0.00774   0.00260  -0.0051   0.9771   0.1651
  -4.600  -0.4967   0.00762   0.00252  -0.0053   0.9749   0.1741
  -4.400  -0.4719   0.00740   0.00239  -0.0059   0.9710   0.1940
  -4.300  -0.4606   0.00729   0.00232  -0.0059   0.9683   0.2035
  -4.200  -0.4503   0.00721   0.00227  -0.0057   0.9646   0.2126
  -4.000  -0.4282   0.00700   0.00214  -0.0056   0.9580   0.2334
  -3.900  -0.4171   0.00691   0.00208  -0.0055   0.9549   0.2436
  -3.800  -0.4070   0.00681   0.00203  -0.0053   0.9504   0.2541
  -3.700  -0.3965   0.00673   0.00198  -0.0051   0.9461   0.2642
  -3.600  -0.3859   0.00665   0.00193  -0.0049   0.9421   0.2751
  -3.500  -0.3754   0.00656   0.00187  -0.0048   0.9377   0.2857
  -3.400  -0.3650   0.00648   0.00183  -0.0046   0.9328   0.2958
  -3.300  -0.3545   0.00640   0.00178  -0.0044   0.9278   0.3070
  -3.200  -0.3441   0.00633   0.00173  -0.0042   0.9231   0.3177
  -3.000  -0.3230   0.00619   0.00165  -0.0038   0.9118   0.3388
  -2.900  -0.3125   0.00612   0.00160  -0.0036   0.9064   0.3495
  -2.800  -0.3018   0.00606   0.00157  -0.0035   0.9002   0.3602
  -2.700  -0.2913   0.00600   0.00153  -0.0033   0.8939   0.3716
  -2.600  -0.2807   0.00594   0.00149  -0.0031   0.8876   0.3825
  -2.500  -0.2700   0.00589   0.00146  -0.0030   0.8807   0.3926
  -2.400  -0.2594   0.00584   0.00142  -0.0028   0.8742   0.4041
  -2.300  -0.2486   0.00579   0.00139  -0.0027   0.8668   0.4144
  -2.200  -0.2380   0.00575   0.00136  -0.0025   0.8594   0.4253
  -2.000  -0.2165   0.00566   0.00130  -0.0022   0.8441   0.4468
  -1.900  -0.2057   0.00563   0.00127  -0.0021   0.8365   0.4575
  -1.800  -0.1950   0.00559   0.00125  -0.0020   0.8280   0.4692
  -1.700  -0.1842   0.00555   0.00122  -0.0019   0.8200   0.4793
  -1.500  -0.1627   0.00549   0.00118  -0.0016   0.8027   0.5015
  -1.400  -0.1519   0.00547   0.00116  -0.0015   0.7935   0.5113
  -1.300  -0.1410   0.00545   0.00114  -0.0014   0.7848   0.5218
  -1.200  -0.1303   0.00543   0.00113  -0.0012   0.7753   0.5330
  -1.000  -0.1086   0.00539   0.00110  -0.0010   0.7572   0.5540
  -0.900  -0.0977   0.00537   0.00108  -0.0009   0.7472   0.5645
  -0.800  -0.0869   0.00536   0.00107  -0.0008   0.7378   0.5747
  -0.700  -0.0760   0.00535   0.00106  -0.0007   0.7278   0.5854
  -0.600  -0.0652   0.00533   0.00105  -0.0006   0.7182   0.5954
  -0.500  -0.0543   0.00534   0.00105  -0.0005   0.7081   0.6063
  -0.400  -0.0434   0.00532   0.00104  -0.0004   0.6985   0.6168
  -0.300  -0.0326   0.00532   0.00104  -0.0003   0.6885   0.6270
  -0.200  -0.0217   0.00531   0.00103  -0.0002   0.6780   0.6375
   0.000  -0.0000   0.00532   0.00103   0.0000   0.6577   0.6579
   0.100   0.0109   0.00531   0.00103   0.0001   0.6477   0.6680
   0.200   0.0217   0.00531   0.00103   0.0002   0.6373   0.6779
   0.300   0.0326   0.00532   0.00104   0.0003   0.6267   0.6885
   0.400   0.0435   0.00532   0.00104   0.0004   0.6167   0.6983
   0.500   0.0543   0.00534   0.00105   0.0005   0.6063   0.7082
   0.600   0.0652   0.00533   0.00105   0.0006   0.5961   0.7186
   0.700   0.0760   0.00535   0.00106   0.0007   0.5856   0.7280
   0.800   0.0869   0.00537   0.00107   0.0008   0.5745   0.7379
   1.000   0.1086   0.00540   0.00110   0.0010   0.5540   0.7568
   1.100   0.1194   0.00541   0.00111   0.0012   0.5431   0.7661
   1.200   0.1303   0.00543   0.00113   0.0012   0.5330   0.7754
   1.300   0.1410   0.00545   0.00114   0.0014   0.5220   0.7848
   1.400   0.1519   0.00547   0.00116   0.0015   0.5108   0.7937
   1.500   0.1627   0.00549   0.00118   0.0016   0.5010   0.8027
   1.600   0.1734   0.00553   0.00120   0.0017   0.4898   0.8112
   1.700   0.1842   0.00555   0.00122   0.0019   0.4790   0.8200
   1.800   0.1950   0.00559   0.00125   0.0020   0.4692   0.8280
   2.000   0.2166   0.00566   0.00130   0.0022   0.4475   0.8441
   2.100   0.2272   0.00570   0.00133   0.0024   0.4365   0.8520
   2.200   0.2380   0.00575   0.00136   0.0025   0.4252   0.8595
   2.300   0.2487   0.00578   0.00139   0.0027   0.4149   0.8668
   2.400   0.2594   0.00584   0.00142   0.0028   0.4040   0.8741
   2.500   0.2700   0.00589   0.00146   0.0030   0.3927   0.8807
   2.600   0.2807   0.00594   0.00149   0.0031   0.3824   0.8877
   2.700   0.2913   0.00600   0.00153   0.0033   0.3715   0.8938
   2.800   0.3018   0.00606   0.00157   0.0035   0.3601   0.9001
   3.000   0.3230   0.00619   0.00165   0.0038   0.3390   0.9117
   3.100   0.3335   0.00626   0.00169   0.0040   0.3279   0.9175
   3.200   0.3441   0.00633   0.00173   0.0042   0.3176   0.9230
   3.300   0.3545   0.00640   0.00178   0.0044   0.3070   0.9278
   3.400   0.3650   0.00648   0.00183   0.0046   0.2957   0.9328
   3.500   0.3754   0.00656   0.00187   0.0048   0.2857   0.9378
   3.600   0.3859   0.00665   0.00193   0.0049   0.2748   0.9421
   3.700   0.3965   0.00673   0.00198   0.0051   0.2643   0.9461
   3.800   0.4070   0.00681   0.00203   0.0053   0.2541   0.9504
   4.000   0.4282   0.00700   0.00214   0.0056   0.2334   0.9580
   4.100   0.4395   0.00710   0.00220   0.0056   0.2232   0.9610
   4.200   0.4503   0.00721   0.00227   0.0057   0.2127   0.9645
   4.300   0.4606   0.00729   0.00232   0.0059   0.2037   0.9684
   4.400   0.4719   0.00740   0.00239   0.0058   0.1939   0.9711
   4.500   0.4844   0.00752   0.00246   0.0055   0.1833   0.9729
   4.600   0.4967   0.00762   0.00252   0.0053   0.1743   0.9749
   4.700   0.5088   0.00774   0.00260   0.0051   0.1651   0.9771
   4.800   0.5207   0.00785   0.00267   0.0049   0.1563   0.9794
   5.000   0.5445   0.00808   0.00282   0.0045   0.1391   0.9834
   5.100   0.5583   0.00819   0.00289   0.0039   0.1319   0.9843
   5.300   0.5861   0.00842   0.00306   0.0027   0.1172   0.9859
   5.400   0.5999   0.00857   0.00315   0.0020   0.1091   0.9866
   5.500   0.6138   0.00867   0.00323   0.0014   0.1036   0.9873
   5.600   0.6274   0.00881   0.00332   0.0008   0.0964   0.9882
   5.700   0.6411   0.00890   0.00341   0.0002   0.0921   0.9891
   5.800   0.6544   0.00903   0.00350  -0.0003   0.0867   0.9900
   6.000   0.6808   0.00926   0.00368  -0.0013   0.0779   0.9921
   6.100   0.6935   0.00940   0.00378  -0.0017   0.0728   0.9931
   6.200   0.7068   0.00949   0.00387  -0.0022   0.0701   0.9939
   6.300   0.7207   0.00961   0.00396  -0.0028   0.0664   0.9944
   6.400   0.7345   0.00975   0.00407  -0.0034   0.0625   0.9948
   6.500   0.7484   0.00984   0.00415  -0.0041   0.0604   0.9954
   6.600   0.7622   0.00995   0.00425  -0.0047   0.0576   0.9959
   6.700   0.7756   0.01010   0.00437  -0.0053   0.0543   0.9965
   6.800   0.7894   0.01019   0.00446  -0.0059   0.0525   0.9971
   7.000   0.8163   0.01044   0.00467  -0.0070   0.0482   0.9983
   7.100   0.8296   0.01059   0.00481  -0.0075   0.0459   0.9989
   7.200   0.8432   0.01067   0.00490  -0.0081   0.0448   0.9994
   7.300   0.8567   0.01078   0.00500  -0.0087   0.0434   0.9999
   7.400   0.8664   0.01089   0.00511  -0.0084   0.0421   1.0000
   7.500   0.8745   0.01102   0.00522  -0.0079   0.0407   1.0000
   7.600   0.8826   0.01116   0.00535  -0.0073   0.0392   1.0000
   7.700   0.8913   0.01123   0.00544  -0.0068   0.0386   1.0000
   7.800   0.8999   0.01132   0.00553  -0.0063   0.0377   1.0000
   8.000   0.9166   0.01153   0.00573  -0.0053   0.0359   1.0000
   8.100   0.9248   0.01167   0.00586  -0.0047   0.0348   1.0000
   8.200   0.9326   0.01184   0.00603  -0.0041   0.0336   1.0000
   8.300   0.9412   0.01194   0.00613  -0.0036   0.0331   1.0000
   8.400   0.9499   0.01203   0.00623  -0.0031   0.0326   1.0000
   8.500   0.9586   0.01213   0.00634  -0.0026   0.0320   1.0000
   8.600   0.9672   0.01224   0.00645  -0.0021   0.0313   1.0000
   8.700   0.9756   0.01236   0.00658  -0.0017   0.0307   1.0000
   8.800   0.9841   0.01250   0.00671  -0.0011   0.0300   1.0000
   9.000   0.9999   0.01288   0.00709   0.0000   0.0284   1.0000
   9.100   1.0089   0.01297   0.00719   0.0004   0.0281   1.0000
   9.200   1.0179   0.01307   0.00731   0.0008   0.0277   1.0000
   9.300   1.0268   0.01318   0.00743   0.0012   0.0272   1.0000
   9.400   1.0356   0.01330   0.00755   0.0016   0.0268   1.0000
   9.500   1.0443   0.01343   0.00768   0.0021   0.0263   1.0000
   9.600   1.0530   0.01357   0.00782   0.0025   0.0258   1.0000
   9.700   1.0616   0.01373   0.00798   0.0029   0.0253   1.0000
   9.800   1.0698   0.01393   0.00818   0.0034   0.0247   1.0000
  10.000   1.0865   0.01432   0.00860   0.0044   0.0238   1.0000
  10.100   1.0957   0.01444   0.00874   0.0047   0.0236   1.0000
  10.200   1.1048   0.01458   0.00889   0.0050   0.0233   1.0000
  10.300   1.1139   0.01472   0.00904   0.0053   0.0230   1.0000
  10.400   1.1229   0.01487   0.00920   0.0057   0.0226   1.0000
  10.500   1.1319   0.01502   0.00936   0.0060   0.0223   1.0000
  10.600   1.1409   0.01518   0.00953   0.0063   0.0220   1.0000
  10.700   1.1498   0.01535   0.00971   0.0067   0.0217   1.0000
  10.800   1.1584   0.01554   0.00990   0.0070   0.0213   1.0000
  11.000   1.1746   0.01603   0.01041   0.0079   0.0205   1.0000
  11.100   1.1817   0.01638   0.01078   0.0084   0.0201   1.0000
  11.200   1.1909   0.01651   0.01093   0.0087   0.0200   1.0000
  11.300   1.2000   0.01666   0.01109   0.0090   0.0198   1.0000
  11.400   1.2090   0.01681   0.01126   0.0093   0.0196   1.0000
  11.500   1.2178   0.01698   0.01145   0.0096   0.0193   1.0000
  11.600   1.2266   0.01715   0.01164   0.0099   0.0191   1.0000
  11.700   1.2353   0.01733   0.01183   0.0102   0.0189   1.0000
  11.800   1.2438   0.01752   0.01204   0.0106   0.0186   1.0000
  12.000   1.2605   0.01792   0.01246   0.0113   0.0182   1.0000
  12.100   1.2686   0.01814   0.01270   0.0117   0.0180   1.0000
  12.200   1.2765   0.01838   0.01294   0.0121   0.0178   1.0000
  12.300   1.2839   0.01865   0.01322   0.0126   0.0175   1.0000
  12.400   1.2908   0.01895   0.01355   0.0131   0.0173   1.0000
  12.500   1.2966   0.01935   0.01396   0.0138   0.0170   1.0000
  12.600   1.3011   0.01982   0.01447   0.0146   0.0167   1.0000
  12.700   1.3091   0.02002   0.01469   0.0150   0.0167   1.0000
  12.800   1.3169   0.02022   0.01492   0.0154   0.0166   1.0000
  13.000   1.3317   0.02068   0.01542   0.0163   0.0163   1.0000
  13.100   1.3388   0.02092   0.01569   0.0168   0.0162   1.0000
  13.200   1.3457   0.02117   0.01596   0.0173   0.0161   1.0000
  13.300   1.3522   0.02143   0.01625   0.0178   0.0159   1.0000
  13.400   1.3579   0.02170   0.01654   0.0185   0.0158   1.0000
  13.500   1.3633   0.02197   0.01683   0.0193   0.0157   1.0000
  13.600   1.3684   0.02224   0.01713   0.0201   0.0155   1.0000
  13.700   1.3733   0.02253   0.01745   0.0208   0.0154   1.0000
  13.800   1.3782   0.02284   0.01777   0.0216   0.0153   1.0000
  14.000   1.3875   0.02348   0.01846   0.0230   0.0150   1.0000
  14.100   1.3921   0.02382   0.01882   0.0237   0.0149   1.0000
  14.200   1.3962   0.02419   0.01921   0.0244   0.0148   1.0000
  14.300   1.4001   0.02459   0.01963   0.0251   0.0147   1.0000
  14.400   1.4037   0.02501   0.02008   0.0258   0.0146   1.0000
  14.500   1.4067   0.02549   0.02058   0.0265   0.0145   1.0000
  14.600   1.4090   0.02603   0.02114   0.0272   0.0143   1.0000
  14.700   1.4103   0.02665   0.02180   0.0279   0.0142   1.0000
  14.800   1.4104   0.02738   0.02257   0.0286   0.0141   1.0000
  15.000   1.4061   0.02930   0.02458   0.0300   0.0138   1.0000
  15.100   1.4091   0.02990   0.02522   0.0304   0.0137   1.0000
  15.200   1.4124   0.03048   0.02583   0.0307   0.0137   1.0000
  15.300   1.4158   0.03107   0.02646   0.0309   0.0136   1.0000
  15.400   1.4187   0.03173   0.02715   0.0311   0.0136   1.0000
  15.500   1.4215   0.03241   0.02787   0.0312   0.0135   1.0000
  15.600   1.4236   0.03318   0.02868   0.0314   0.0135   1.0000
  15.700   1.4252   0.03402   0.02955   0.0314   0.0134   1.0000
  15.800   1.4266   0.03489   0.03047   0.0315   0.0133   1.0000
  16.000   1.4286   0.03683   0.03249   0.0313   0.0132   1.0000
  16.100   1.4293   0.03787   0.03357   0.0311   0.0132   1.0000
  16.200   1.4293   0.03902   0.03476   0.0309   0.0131   1.0000
  16.300   1.4293   0.04020   0.03598   0.0306   0.0130   1.0000
  16.400   1.4287   0.04148   0.03730   0.0302   0.0130   1.0000
  16.500   1.4284   0.04275   0.03862   0.0298   0.0129   1.0000
  16.600   1.4271   0.04419   0.04011   0.0292   0.0129   1.0000
  16.700   1.4255   0.04570   0.04165   0.0286   0.0128   1.0000
  16.800   1.4234   0.04729   0.04329   0.0280   0.0128   1.0000
  17.000   1.4176   0.05076   0.04686   0.0264   0.0127   1.0000
  17.100   1.4140   0.05264   0.04879   0.0255   0.0126   1.0000
  17.200   1.4101   0.05461   0.05080   0.0246   0.0126   1.0000
  17.300   1.4053   0.05671   0.05296   0.0236   0.0126   1.0000
  17.400   1.3999   0.05892   0.05522   0.0225   0.0125   1.0000
  17.500   1.3940   0.06121   0.05756   0.0213   0.0125   1.0000
  17.600   1.3874   0.06365   0.06005   0.0201   0.0125   1.0000
  17.700   1.3801   0.06619   0.06265   0.0188   0.0125   1.0000
  17.800   1.3719   0.06890   0.06541   0.0175   0.0125   1.0000
  18.000   1.3549   0.07449   0.07110   0.0147   0.0124   1.0000
  18.100   1.3450   0.07753   0.07421   0.0131   0.0124   1.0000
  18.200   1.3348   0.08067   0.07739   0.0115   0.0124   1.0000
  18.300   1.3246   0.08383   0.08061   0.0099   0.0124   1.0000
  18.400   1.3140   0.08709   0.08392   0.0083   0.0124   1.0000
  18.500   1.3026   0.09048   0.08736   0.0065   0.0124   1.0000
  18.600   1.2915   0.09384   0.09078   0.0048   0.0124   1.0000
  18.700   1.2808   0.09719   0.09418   0.0031   0.0124   1.0000
  18.800   1.2700   0.10057   0.09761   0.0014   0.0124   1.0000
  19.000   1.2474   0.10763   0.10477  -0.0022   0.0124   1.0000
  19.100   1.2378   0.11085   0.10804  -0.0039   0.0124   1.0000
  19.200   1.2266   0.11442   0.11166  -0.0057   0.0124   1.0000
  19.300   1.2173   0.11768   0.11496  -0.0074   0.0124   1.0000
  19.400   1.2073   0.12112   0.11844  -0.0093   0.0124   1.0000
  19.500   1.1984   0.12436   0.12173  -0.0110   0.0124   1.0000
  19.600   1.1892   0.12771   0.12512  -0.0128   0.0124   1.0000
  19.700   1.1811   0.13082   0.12826  -0.0145   0.0124   1.0000
  19.800   1.1721   0.13416   0.13165  -0.0163   0.0123   1.0000
