  
       XFOIL         Version 6.99
  
 Calculated polar for: NACA 0012                                       
  
 1 1 Reynolds number fixed          Mach number fixed         
  
 xtrf =   1.000 (top)        1.000 (bottom)  
 Mach =   0.000     Re =     1.700 e 6     Ncrit =   9.000
  
   alpha    CL        CD       CDp       CM     Top_Xtr  Bot_Xtr
  ------ -------- --------- --------- -------- -------- --------
 -20.000  -1.2454   0.12372   0.12123   0.0103   1.0000   0.0107
 -19.900  -1.2603   0.11942   0.11688   0.0079   1.0000   0.0107
 -19.800  -1.2765   0.11493   0.11233   0.0055   1.0000   0.0107
 -19.700  -1.2916   0.11073   0.10808   0.0033   1.0000   0.0107
 -19.600  -1.3079   0.10638   0.10367   0.0011   1.0000   0.0106
 -19.500  -1.3245   0.10200   0.09923  -0.0012   1.0000   0.0106
 -19.400  -1.3402   0.09779   0.09496  -0.0034   1.0000   0.0106
 -19.300  -1.3568   0.09351   0.09061  -0.0056   1.0000   0.0106
 -19.200  -1.3729   0.08935   0.08638  -0.0077   1.0000   0.0106
 -19.000  -1.4032   0.08144   0.07835  -0.0117   1.0000   0.0105
 -18.900  -1.4166   0.07782   0.07467  -0.0136   1.0000   0.0105
 -18.800  -1.4287   0.07445   0.07124  -0.0153   1.0000   0.0105
 -18.700  -1.4399   0.07129   0.06802  -0.0169   1.0000   0.0105
 -18.600  -1.4507   0.06818   0.06484  -0.0184   1.0000   0.0105
 -18.500  -1.4597   0.06537   0.06199  -0.0198   1.0000   0.0106
 -18.400  -1.4689   0.06258   0.05914  -0.0212   1.0000   0.0106
 -18.300  -1.4767   0.06003   0.05653  -0.0225   1.0000   0.0106
 -18.200  -1.4833   0.05768   0.05413  -0.0236   1.0000   0.0106
 -18.000  -1.4947   0.05330   0.04965  -0.0257   1.0000   0.0106
 -17.900  -1.4994   0.05129   0.04759  -0.0266   1.0000   0.0107
 -17.800  -1.5030   0.04947   0.04572  -0.0274   1.0000   0.0107
 -17.700  -1.5059   0.04778   0.04399  -0.0282   1.0000   0.0107
 -17.600  -1.5089   0.04609   0.04225  -0.0288   1.0000   0.0107
 -17.500  -1.5110   0.04455   0.04068  -0.0294   1.0000   0.0108
 -17.400  -1.5127   0.04309   0.03916  -0.0300   1.0000   0.0108
 -17.300  -1.5136   0.04174   0.03777  -0.0304   1.0000   0.0108
 -17.200  -1.5142   0.04047   0.03647  -0.0308   1.0000   0.0109
 -17.000  -1.5143   0.03815   0.03407  -0.0313   1.0000   0.0109
 -16.900  -1.5139   0.03708   0.03297  -0.0315   1.0000   0.0110
 -16.800  -1.5130   0.03609   0.03194  -0.0317   1.0000   0.0110
 -16.700  -1.5118   0.03515   0.03096  -0.0317   1.0000   0.0110
 -16.600  -1.5100   0.03430   0.03008  -0.0317   1.0000   0.0111
 -16.500  -1.5082   0.03347   0.02921  -0.0317   1.0000   0.0111
 -16.400  -1.5064   0.03267   0.02839  -0.0316   1.0000   0.0111
 -16.300  -1.5040   0.03195   0.02763  -0.0315   1.0000   0.0111
 -16.200  -1.5038   0.03103   0.02667  -0.0313   1.0000   0.0112
 -16.000  -1.5077   0.02895   0.02449  -0.0305   1.0000   0.0114
 -15.900  -1.5079   0.02812   0.02361  -0.0300   1.0000   0.0115
 -15.800  -1.5072   0.02738   0.02284  -0.0294   1.0000   0.0116
 -15.700  -1.5059   0.02672   0.02215  -0.0289   1.0000   0.0117
 -15.600  -1.5040   0.02613   0.02152  -0.0283   1.0000   0.0118
 -15.500  -1.5014   0.02559   0.02096  -0.0277   1.0000   0.0119
 -15.400  -1.4983   0.02511   0.02045  -0.0271   1.0000   0.0120
 -15.300  -1.4950   0.02465   0.01997  -0.0264   1.0000   0.0120
 -15.200  -1.4915   0.02422   0.01952  -0.0258   1.0000   0.0121
 -15.000  -1.4833   0.02346   0.01872  -0.0245   1.0000   0.0123
 -14.900  -1.4790   0.02311   0.01835  -0.0238   1.0000   0.0124
 -14.800  -1.4744   0.02278   0.01800  -0.0231   1.0000   0.0125
 -14.700  -1.4698   0.02246   0.01765  -0.0224   1.0000   0.0126
 -14.600  -1.4649   0.02215   0.01733  -0.0217   1.0000   0.0127
 -14.500  -1.4600   0.02186   0.01702  -0.0210   1.0000   0.0128
 -14.400  -1.4550   0.02158   0.01672  -0.0202   1.0000   0.0129
 -14.300  -1.4497   0.02132   0.01643  -0.0195   1.0000   0.0130
 -14.200  -1.4442   0.02108   0.01617  -0.0188   1.0000   0.0131
 -14.000  -1.4326   0.02061   0.01567  -0.0174   1.0000   0.0133
 -13.900  -1.4259   0.02038   0.01542  -0.0168   1.0000   0.0134
 -13.800  -1.4188   0.02016   0.01518  -0.0163   1.0000   0.0135
 -13.700  -1.4115   0.01995   0.01495  -0.0159   1.0000   0.0136
 -13.600  -1.4039   0.01975   0.01473  -0.0154   1.0000   0.0136
 -13.500  -1.3962   0.01955   0.01452  -0.0150   1.0000   0.0137
 -13.400  -1.3883   0.01936   0.01431  -0.0146   1.0000   0.0137
 -13.300  -1.3825   0.01900   0.01392  -0.0140   1.0000   0.0139
 -13.200  -1.3767   0.01862   0.01351  -0.0133   1.0000   0.0142
 -13.000  -1.3627   0.01805   0.01290  -0.0123   1.0000   0.0146
 -12.900  -1.3550   0.01781   0.01265  -0.0118   1.0000   0.0148
 -12.800  -1.3470   0.01759   0.01242  -0.0114   1.0000   0.0149
 -12.700  -1.3388   0.01738   0.01221  -0.0111   1.0000   0.0151
 -12.600  -1.3305   0.01719   0.01200  -0.0107   1.0000   0.0153
 -12.500  -1.3221   0.01699   0.01179  -0.0104   1.0000   0.0154
 -12.400  -1.3135   0.01681   0.01160  -0.0100   1.0000   0.0156
 -12.300  -1.3049   0.01663   0.01141  -0.0097   1.0000   0.0158
 -12.200  -1.2962   0.01646   0.01122  -0.0094   1.0000   0.0159
 -12.000  -1.2785   0.01612   0.01086  -0.0088   1.0000   0.0163
 -11.900  -1.2695   0.01596   0.01068  -0.0085   1.0000   0.0164
 -11.800  -1.2604   0.01581   0.01052  -0.0082   1.0000   0.0165
 -11.700  -1.2513   0.01567   0.01036  -0.0080   1.0000   0.0166
 -11.600  -1.2420   0.01553   0.01021  -0.0077   1.0000   0.0167
 -11.500  -1.2343   0.01525   0.00991  -0.0072   1.0000   0.0171
 -11.400  -1.2260   0.01501   0.00966  -0.0068   1.0000   0.0175
 -11.300  -1.2173   0.01481   0.00945  -0.0065   1.0000   0.0178
 -11.200  -1.2084   0.01463   0.00928  -0.0061   1.0000   0.0181
 -11.000  -1.1903   0.01432   0.00896  -0.0055   1.0000   0.0186
 -10.900  -1.1811   0.01418   0.00881  -0.0053   1.0000   0.0189
 -10.800  -1.1718   0.01405   0.00867  -0.0050   1.0000   0.0192
 -10.700  -1.1625   0.01392   0.00853  -0.0047   1.0000   0.0194
 -10.600  -1.1532   0.01379   0.00839  -0.0044   1.0000   0.0197
 -10.500  -1.1439   0.01367   0.00826  -0.0041   1.0000   0.0199
 -10.400  -1.1345   0.01356   0.00814  -0.0038   1.0000   0.0200
 -10.300  -1.1255   0.01342   0.00799  -0.0035   1.0000   0.0203
 -10.200  -1.1173   0.01320   0.00776  -0.0030   1.0000   0.0208
 -10.000  -1.1000   0.01289   0.00745  -0.0021   1.0000   0.0217
  -9.900  -1.0912   0.01275   0.00731  -0.0017   1.0000   0.0221
  -9.800  -1.0824   0.01262   0.00718  -0.0013   1.0000   0.0224
  -9.700  -1.0736   0.01251   0.00706  -0.0009   1.0000   0.0228
  -9.600  -1.0647   0.01239   0.00694  -0.0005   1.0000   0.0232
  -9.500  -1.0557   0.01229   0.00683  -0.0001   1.0000   0.0235
  -9.400  -1.0468   0.01219   0.00672   0.0004   1.0000   0.0237
  -9.300  -1.0378   0.01210   0.00663   0.0008   1.0000   0.0239
  -9.200  -1.0296   0.01194   0.00646   0.0013   1.0000   0.0246
  -9.000  -1.0130   0.01167   0.00619   0.0024   1.0000   0.0259
  -8.900  -1.0045   0.01155   0.00608   0.0029   1.0000   0.0264
  -8.800  -0.9960   0.01145   0.00598   0.0034   1.0000   0.0270
  -8.700  -0.9874   0.01135   0.00588   0.0039   1.0000   0.0275
  -8.600  -0.9788   0.01127   0.00579   0.0043   1.0000   0.0279
  -8.500  -0.9701   0.01119   0.00570   0.0048   1.0000   0.0283
  -8.400  -0.9618   0.01107   0.00558   0.0054   1.0000   0.0289
  -8.300  -0.9537   0.01094   0.00545   0.0060   1.0000   0.0298
  -8.200  -0.9455   0.01083   0.00535   0.0065   1.0000   0.0306
  -8.000  -0.9241   0.01061   0.00514   0.0066   0.9997   0.0322
  -7.900  -0.9110   0.01052   0.00504   0.0061   0.9993   0.0329
  -7.800  -0.8978   0.01043   0.00495   0.0056   0.9989   0.0334
  -7.700  -0.8849   0.01028   0.00482   0.0052   0.9984   0.0351
  -7.600  -0.8719   0.01016   0.00471   0.0047   0.9979   0.0364
  -7.500  -0.8588   0.01004   0.00461   0.0042   0.9974   0.0377
  -7.400  -0.8455   0.00995   0.00451   0.0037   0.9969   0.0387
  -7.300  -0.8322   0.00986   0.00442   0.0032   0.9964   0.0398
  -7.200  -0.8190   0.00973   0.00431   0.0027   0.9959   0.0418
  -7.000  -0.7922   0.00951   0.00412   0.0017   0.9950   0.0450
  -6.900  -0.7786   0.00943   0.00404   0.0011   0.9946   0.0460
  -6.800  -0.7651   0.00930   0.00393   0.0005   0.9942   0.0488
  -6.700  -0.7516   0.00919   0.00384  -0.0000   0.9938   0.0511
  -6.600  -0.7388   0.00909   0.00375  -0.0004   0.9931   0.0530
  -6.500  -0.7263   0.00900   0.00366  -0.0007   0.9922   0.0552
  -6.400  -0.7137   0.00888   0.00357  -0.0011   0.9912   0.0584
  -6.300  -0.7007   0.00877   0.00349  -0.0015   0.9903   0.0610
  -6.200  -0.6874   0.00869   0.00341  -0.0020   0.9895   0.0631
  -6.000  -0.6610   0.00846   0.00323  -0.0030   0.9879   0.0706
  -5.900  -0.6477   0.00837   0.00316  -0.0035   0.9869   0.0736
  -5.800  -0.6348   0.00825   0.00307  -0.0039   0.9859   0.0786
  -5.700  -0.6218   0.00815   0.00299  -0.0043   0.9849   0.0826
  -5.600  -0.6086   0.00805   0.00291  -0.0048   0.9839   0.0872
  -5.500  -0.5955   0.00794   0.00284  -0.0053   0.9828   0.0924
  -5.400  -0.5849   0.00787   0.00277  -0.0051   0.9802   0.0959
  -5.300  -0.5740   0.00775   0.00269  -0.0051   0.9776   0.1022
  -5.200  -0.5626   0.00766   0.00263  -0.0051   0.9751   0.1074
  -5.000  -0.5390   0.00746   0.00249  -0.0054   0.9708   0.1202
  -4.900  -0.5283   0.00738   0.00243  -0.0053   0.9678   0.1258
  -4.800  -0.5181   0.00728   0.00236  -0.0051   0.9642   0.1329
  -4.700  -0.5073   0.00720   0.00230  -0.0049   0.9607   0.1391
  -4.600  -0.4967   0.00710   0.00223  -0.0048   0.9573   0.1476
  -4.500  -0.4860   0.00702   0.00217  -0.0047   0.9539   0.1545
  -4.400  -0.4757   0.00692   0.00211  -0.0045   0.9497   0.1627
  -4.300  -0.4653   0.00685   0.00206  -0.0043   0.9454   0.1700
  -4.200  -0.4549   0.00676   0.00200  -0.0041   0.9412   0.1791
  -4.000  -0.4339   0.00660   0.00189  -0.0038   0.9320   0.1963
  -3.900  -0.4236   0.00651   0.00183  -0.0035   0.9269   0.2055
  -3.800  -0.4130   0.00645   0.00179  -0.0034   0.9222   0.2143
  -3.700  -0.4024   0.00636   0.00173  -0.0032   0.9167   0.2246
  -3.600  -0.3919   0.00630   0.00169  -0.0031   0.9110   0.2333
  -3.500  -0.3813   0.00623   0.00164  -0.0029   0.9057   0.2430
  -3.400  -0.3707   0.00615   0.00159  -0.0028   0.8996   0.2538
  -3.300  -0.3601   0.00610   0.00155  -0.0026   0.8931   0.2627
  -3.200  -0.3494   0.00603   0.00151  -0.0025   0.8871   0.2733
  -2.900  -0.3172   0.00585   0.00139  -0.0021   0.8665   0.3041
  -2.800  -0.3066   0.00581   0.00135  -0.0020   0.8590   0.3137
  -2.700  -0.2956   0.00576   0.00132  -0.0019   0.8518   0.3241
  -2.600  -0.2850   0.00571   0.00128  -0.0018   0.8439   0.3342
  -2.500  -0.2741   0.00567   0.00125  -0.0017   0.8364   0.3446
  -2.400  -0.2633   0.00563   0.00122  -0.0016   0.8281   0.3558
  -2.300  -0.2525   0.00558   0.00119  -0.0015   0.8205   0.3661
  -2.200  -0.2415   0.00555   0.00116  -0.0014   0.8117   0.3758
  -2.000  -0.2198   0.00548   0.00111  -0.0012   0.7944   0.3966
  -1.900  -0.2088   0.00546   0.00109  -0.0011   0.7859   0.4069
  -1.800  -0.1980   0.00542   0.00106  -0.0010   0.7765   0.4182
  -1.700  -0.1870   0.00539   0.00104  -0.0010   0.7677   0.4278
  -1.500  -0.1652   0.00534   0.00100  -0.0008   0.7491   0.4491
  -1.400  -0.1543   0.00533   0.00099  -0.0008   0.7396   0.4591
  -1.300  -0.1432   0.00531   0.00097  -0.0007   0.7303   0.4693
  -1.200  -0.1323   0.00528   0.00096  -0.0006   0.7211   0.4802
  -1.000  -0.1103   0.00525   0.00093  -0.0005   0.7016   0.5005
  -0.900  -0.0993   0.00525   0.00092  -0.0005   0.6915   0.5108
  -0.800  -0.0882   0.00523   0.00091  -0.0004   0.6819   0.5208
  -0.700  -0.0773   0.00522   0.00090  -0.0003   0.6722   0.5309
  -0.600  -0.0662   0.00521   0.00090  -0.0003   0.6622   0.5416
  -0.500  -0.0552   0.00521   0.00089  -0.0002   0.6524   0.5516
  -0.400  -0.0442   0.00520   0.00089  -0.0002   0.6419   0.5615
  -0.300  -0.0331   0.00520   0.00088  -0.0002   0.6323   0.5719
  -0.200  -0.0221   0.00519   0.00088  -0.0001   0.6220   0.5819
   0.000   0.0000   0.00519   0.00088  -0.0000   0.6023   0.6025
   0.100   0.0110   0.00519   0.00088   0.0001   0.5918   0.6123
   0.200   0.0221   0.00519   0.00088   0.0001   0.5819   0.6222
   0.300   0.0331   0.00520   0.00088   0.0002   0.5722   0.6323
   0.400   0.0442   0.00520   0.00089   0.0002   0.5617   0.6421
   0.500   0.0552   0.00520   0.00089   0.0002   0.5517   0.6524
   0.600   0.0662   0.00522   0.00090   0.0003   0.5410   0.6620
   0.700   0.0773   0.00522   0.00090   0.0003   0.5311   0.6720
   0.800   0.0882   0.00523   0.00091   0.0004   0.5209   0.6818
   1.000   0.1103   0.00525   0.00093   0.0005   0.5004   0.7019
   1.100   0.1212   0.00528   0.00095   0.0006   0.4898   0.7111
   1.200   0.1323   0.00529   0.00096   0.0006   0.4799   0.7208
   1.300   0.1432   0.00530   0.00097   0.0007   0.4698   0.7303
   1.400   0.1543   0.00533   0.00099   0.0008   0.4591   0.7397
   1.500   0.1652   0.00534   0.00101   0.0008   0.4488   0.7490
   1.600   0.1762   0.00538   0.00102   0.0009   0.4384   0.7583
   1.700   0.1871   0.00539   0.00104   0.0010   0.4277   0.7677
   1.800   0.1981   0.00542   0.00106   0.0010   0.4178   0.7764
   2.000   0.2198   0.00548   0.00111   0.0012   0.3967   0.7943
   2.100   0.2307   0.00551   0.00113   0.0013   0.3869   0.8034
   2.200   0.2416   0.00555   0.00116   0.0014   0.3760   0.8116
   2.300   0.2525   0.00558   0.00119   0.0015   0.3659   0.8202
   2.400   0.2633   0.00563   0.00122   0.0016   0.3554   0.8283
   2.500   0.2741   0.00567   0.00125   0.0017   0.3446   0.8366
   2.600   0.2850   0.00571   0.00128   0.0018   0.3343   0.8440
   2.700   0.2957   0.00576   0.00132   0.0019   0.3244   0.8520
   2.800   0.3066   0.00581   0.00135   0.0020   0.3135   0.8590
   3.100   0.3387   0.00597   0.00146   0.0024   0.2834   0.8801
   3.200   0.3494   0.00603   0.00151   0.0025   0.2732   0.8871
   3.300   0.3601   0.00610   0.00155   0.0026   0.2626   0.8931
   3.400   0.3707   0.00615   0.00159   0.0028   0.2537   0.8995
   3.500   0.3813   0.00623   0.00164   0.0029   0.2431   0.9056
   3.600   0.3919   0.00629   0.00168   0.0031   0.2334   0.9109
   3.700   0.4024   0.00636   0.00173   0.0032   0.2244   0.9167
   4.000   0.4339   0.00660   0.00189   0.0038   0.1962   0.9320
   4.100   0.4444   0.00667   0.00194   0.0039   0.1879   0.9369
   4.200   0.4549   0.00676   0.00200   0.0041   0.1791   0.9412
   4.300   0.4653   0.00685   0.00206   0.0043   0.1703   0.9454
   4.400   0.4757   0.00692   0.00211   0.0045   0.1627   0.9497
   4.500   0.4860   0.00702   0.00218   0.0047   0.1542   0.9539
   4.600   0.4967   0.00710   0.00223   0.0048   0.1475   0.9574
   4.700   0.5073   0.00721   0.00230   0.0049   0.1389   0.9607
   4.800   0.5181   0.00728   0.00236   0.0051   0.1328   0.9642
   5.000   0.5390   0.00746   0.00249   0.0054   0.1202   0.9708
   5.100   0.5508   0.00756   0.00256   0.0052   0.1138   0.9729
   5.200   0.5626   0.00766   0.00263   0.0051   0.1074   0.9751
   5.300   0.5740   0.00775   0.00269   0.0051   0.1023   0.9776
   5.400   0.5849   0.00787   0.00277   0.0051   0.0959   0.9802
   5.500   0.5955   0.00794   0.00284   0.0052   0.0924   0.9829
   5.600   0.6087   0.00805   0.00291   0.0048   0.0872   0.9839
   5.700   0.6218   0.00815   0.00299   0.0043   0.0826   0.9849
   5.800   0.6348   0.00825   0.00307   0.0039   0.0787   0.9859
   6.000   0.6610   0.00846   0.00323   0.0030   0.0706   0.9879
   6.100   0.6743   0.00857   0.00331   0.0025   0.0672   0.9887
   6.200   0.6875   0.00869   0.00341   0.0020   0.0631   0.9895
   6.300   0.7007   0.00877   0.00349   0.0015   0.0610   0.9903
   6.400   0.7137   0.00888   0.00357   0.0011   0.0584   0.9912
   6.500   0.7264   0.00900   0.00366   0.0007   0.0552   0.9922
   6.600   0.7389   0.00909   0.00375   0.0004   0.0530   0.9931
   6.700   0.7517   0.00919   0.00384   0.0000   0.0511   0.9938
   6.800   0.7653   0.00930   0.00393  -0.0006   0.0488   0.9942
   7.000   0.7923   0.00951   0.00412  -0.0017   0.0450   0.9950
   7.100   0.8058   0.00961   0.00421  -0.0022   0.0435   0.9954
   7.200   0.8191   0.00973   0.00431  -0.0028   0.0418   0.9959
   7.300   0.8322   0.00986   0.00442  -0.0032   0.0397   0.9964
   7.400   0.8456   0.00995   0.00451  -0.0038   0.0387   0.9969
   7.500   0.8589   0.01004   0.00461  -0.0043   0.0377   0.9974
   7.600   0.8720   0.01015   0.00471  -0.0048   0.0364   0.9979
   7.700   0.8850   0.01028   0.00482  -0.0052   0.0351   0.9984
   7.800   0.8979   0.01043   0.00495  -0.0057   0.0334   0.9989
   8.000   0.9243   0.01061   0.00514  -0.0066   0.0322   0.9997
   8.100   0.9371   0.01072   0.00525  -0.0071   0.0314   1.0000
   8.200   0.9454   0.01082   0.00535  -0.0065   0.0307   1.0000
   8.300   0.9536   0.01094   0.00545  -0.0060   0.0298   1.0000
   8.400   0.9617   0.01107   0.00558  -0.0054   0.0289   1.0000
   8.500   0.9700   0.01119   0.00570  -0.0048   0.0283   1.0000
   8.600   0.9787   0.01127   0.00579  -0.0043   0.0279   1.0000
   8.700   0.9873   0.01135   0.00588  -0.0038   0.0275   1.0000
   8.800   0.9959   0.01145   0.00598  -0.0034   0.0270   1.0000
   9.000   1.0129   0.01167   0.00619  -0.0024   0.0259   1.0000
   9.100   1.0214   0.01179   0.00631  -0.0018   0.0253   1.0000
   9.200   1.0296   0.01194   0.00646  -0.0013   0.0246   1.0000
   9.300   1.0378   0.01210   0.00662  -0.0008   0.0239   1.0000
   9.400   1.0468   0.01219   0.00672  -0.0004   0.0237   1.0000
   9.500   1.0557   0.01229   0.00683   0.0001   0.0235   1.0000
   9.600   1.0647   0.01239   0.00694   0.0005   0.0231   1.0000
   9.700   1.0736   0.01250   0.00706   0.0009   0.0228   1.0000
   9.800   1.0825   0.01262   0.00718   0.0013   0.0224   1.0000
  10.000   1.1000   0.01289   0.00745   0.0021   0.0217   1.0000
  10.100   1.1087   0.01303   0.00759   0.0025   0.0213   1.0000
  10.200   1.1173   0.01320   0.00776   0.0030   0.0208   1.0000
  10.300   1.1255   0.01342   0.00799   0.0035   0.0203   1.0000
  10.400   1.1346   0.01356   0.00814   0.0038   0.0200   1.0000
  10.500   1.1439   0.01367   0.00826   0.0041   0.0199   1.0000
  10.600   1.1533   0.01379   0.00839   0.0044   0.0197   1.0000
  10.700   1.1626   0.01391   0.00852   0.0047   0.0194   1.0000
  10.800   1.1719   0.01404   0.00866   0.0050   0.0192   1.0000
  11.000   1.1904   0.01432   0.00895   0.0055   0.0186   1.0000
  11.100   1.1995   0.01447   0.00911   0.0058   0.0183   1.0000
  11.200   1.2086   0.01463   0.00927   0.0061   0.0181   1.0000
  11.300   1.2175   0.01481   0.00945   0.0064   0.0178   1.0000
  11.400   1.2261   0.01501   0.00966   0.0068   0.0175   1.0000
  11.500   1.2344   0.01525   0.00991   0.0072   0.0171   1.0000
  11.600   1.2422   0.01553   0.01021   0.0077   0.0167   1.0000
  11.700   1.2515   0.01567   0.01036   0.0079   0.0166   1.0000
  11.800   1.2606   0.01581   0.01052   0.0082   0.0165   1.0000
  12.000   1.2787   0.01612   0.01086   0.0087   0.0163   1.0000
  12.100   1.2876   0.01629   0.01104   0.0090   0.0161   1.0000
  12.200   1.2964   0.01646   0.01122   0.0094   0.0159   1.0000
  12.300   1.3051   0.01663   0.01141   0.0097   0.0158   1.0000
  12.400   1.3138   0.01681   0.01160   0.0100   0.0156   1.0000
  12.500   1.3223   0.01699   0.01179   0.0103   0.0154   1.0000
  12.600   1.3308   0.01718   0.01200   0.0107   0.0153   1.0000
  12.700   1.3391   0.01738   0.01221   0.0110   0.0151   1.0000
  12.800   1.3472   0.01759   0.01242   0.0114   0.0149   1.0000
  13.000   1.3629   0.01805   0.01290   0.0122   0.0146   1.0000
  13.100   1.3702   0.01832   0.01319   0.0127   0.0144   1.0000
  13.200   1.3770   0.01863   0.01352   0.0132   0.0142   1.0000
  13.300   1.3827   0.01901   0.01393   0.0139   0.0139   1.0000
  13.400   1.3887   0.01936   0.01430   0.0145   0.0137   1.0000
  13.500   1.3965   0.01955   0.01452   0.0149   0.0137   1.0000
  13.600   1.4042   0.01975   0.01473   0.0154   0.0136   1.0000
  13.700   1.4118   0.01995   0.01495   0.0158   0.0136   1.0000
  13.800   1.4192   0.02017   0.01519   0.0162   0.0135   1.0000
  14.000   1.4330   0.02061   0.01567   0.0173   0.0133   1.0000
  14.100   1.4391   0.02084   0.01592   0.0179   0.0132   1.0000
  14.200   1.4448   0.02107   0.01617   0.0186   0.0131   1.0000
  14.300   1.4502   0.02133   0.01644   0.0194   0.0130   1.0000
  14.400   1.4556   0.02158   0.01672   0.0201   0.0129   1.0000
  14.500   1.4606   0.02186   0.01702   0.0208   0.0128   1.0000
  14.600   1.4657   0.02215   0.01732   0.0216   0.0127   1.0000
  14.700   1.4705   0.02246   0.01765   0.0223   0.0126   1.0000
  14.800   1.4753   0.02277   0.01798   0.0230   0.0125   1.0000
  15.000   1.4841   0.02346   0.01872   0.0243   0.0123   1.0000
  15.100   1.4883   0.02383   0.01910   0.0250   0.0122   1.0000
  15.200   1.4923   0.02422   0.01952   0.0256   0.0121   1.0000
  15.300   1.4959   0.02465   0.01997   0.0263   0.0121   1.0000
  15.400   1.4993   0.02509   0.02044   0.0269   0.0120   1.0000
  15.500   1.5024   0.02558   0.02095   0.0275   0.0119   1.0000
  15.600   1.5048   0.02612   0.02152   0.0281   0.0118   1.0000
  15.700   1.5069   0.02671   0.02214   0.0287   0.0117   1.0000
  15.800   1.5082   0.02737   0.02283   0.0293   0.0116   1.0000
  16.000   1.5084   0.02897   0.02451   0.0303   0.0114   1.0000
  16.100   1.5068   0.02996   0.02554   0.0308   0.0113   1.0000
  16.200   1.5049   0.03102   0.02666   0.0311   0.0112   1.0000
  16.300   1.5054   0.03191   0.02759   0.0313   0.0111   1.0000
  16.400   1.5076   0.03266   0.02837   0.0314   0.0111   1.0000
  16.500   1.5103   0.03338   0.02912   0.0315   0.0111   1.0000
  16.600   1.5121   0.03420   0.02997   0.0316   0.0110   1.0000
  16.700   1.5135   0.03509   0.03090   0.0315   0.0110   1.0000
  16.800   1.5149   0.03601   0.03185   0.0315   0.0110   1.0000
  17.000   1.5162   0.03807   0.03399   0.0311   0.0109   1.0000
  17.100   1.5164   0.03920   0.03515   0.0309   0.0109   1.0000
  17.200   1.5163   0.04037   0.03637   0.0306   0.0109   1.0000
  17.300   1.5158   0.04164   0.03768   0.0302   0.0108   1.0000
  17.400   1.5146   0.04302   0.03910   0.0297   0.0108   1.0000
  17.500   1.5132   0.04445   0.04057   0.0292   0.0108   1.0000
  17.600   1.5110   0.04601   0.04217   0.0286   0.0107   1.0000
  17.700   1.5083   0.04765   0.04386   0.0279   0.0107   1.0000
  17.800   1.5049   0.04942   0.04567   0.0272   0.0107   1.0000
  18.000   1.4975   0.05315   0.04949   0.0255   0.0106   1.0000
  18.100   1.4919   0.05531   0.05170   0.0245   0.0106   1.0000
  18.200   1.4857   0.05759   0.05404   0.0233   0.0106   1.0000
  18.300   1.4792   0.05992   0.05643   0.0222   0.0106   1.0000
  18.400   1.4720   0.06239   0.05894   0.0210   0.0106   1.0000
  18.500   1.4631   0.06514   0.06175   0.0196   0.0105   1.0000
  18.600   1.4535   0.06804   0.06470   0.0182   0.0105   1.0000
  18.700   1.4435   0.07104   0.06776   0.0167   0.0105   1.0000
  18.800   1.4321   0.07423   0.07102   0.0150   0.0105   1.0000
  19.000   1.4058   0.08134   0.07825   0.0114   0.0105   1.0000
  19.100   1.3922   0.08504   0.08201   0.0095   0.0105   1.0000
  19.200   1.3764   0.08913   0.08616   0.0074   0.0106   1.0000
  19.300   1.3607   0.09320   0.09030   0.0054   0.0106   1.0000
  19.400   1.3436   0.09758   0.09474   0.0031   0.0106   1.0000
  19.500   1.3274   0.10186   0.09909   0.0009   0.0106   1.0000
  19.600   1.3109   0.10626   0.10355  -0.0014   0.0106   1.0000
  19.700   1.2948   0.11056   0.10790  -0.0036   0.0107   1.0000
  19.800   1.2792   0.11486   0.11226  -0.0059   0.0107   1.0000
