  
       XFOIL         Version 6.99
  
 Calculated polar for: NACA 0012                                       
  
 1 1 Reynolds number fixed          Mach number fixed         
  
 xtrf =   1.000 (top)        1.000 (bottom)  
 Mach =   0.000     Re =     2.100 e 6     Ncrit =   9.000
  
   alpha    CL        CD       CDp       CM     Top_Xtr  Bot_Xtr
  ------ -------- --------- --------- -------- -------- --------
 -20.000  -1.3930   0.09777   0.09498  -0.0040   1.0000   0.0096
 -19.900  -1.4110   0.09327   0.09041  -0.0063   1.0000   0.0095
 -19.800  -1.4280   0.08904   0.08612  -0.0085   1.0000   0.0095
 -19.700  -1.4435   0.08509   0.08211  -0.0105   1.0000   0.0095
 -19.600  -1.4587   0.08118   0.07813  -0.0125   1.0000   0.0095
 -19.500  -1.4719   0.07763   0.07452  -0.0143   1.0000   0.0095
 -19.400  -1.4852   0.07412   0.07095  -0.0160   1.0000   0.0095
 -19.300  -1.4976   0.07081   0.06757  -0.0177   1.0000   0.0095
 -19.200  -1.5089   0.06767   0.06437  -0.0193   1.0000   0.0095
 -19.000  -1.5279   0.06203   0.05862  -0.0221   1.0000   0.0095
 -18.900  -1.5363   0.05944   0.05598  -0.0233   1.0000   0.0095
 -18.800  -1.5437   0.05704   0.05353  -0.0244   1.0000   0.0095
 -18.700  -1.5505   0.05474   0.05118  -0.0255   1.0000   0.0095
 -18.600  -1.5563   0.05260   0.04899  -0.0265   1.0000   0.0096
 -18.500  -1.5613   0.05059   0.04694  -0.0274   1.0000   0.0096
 -18.400  -1.5657   0.04870   0.04500  -0.0282   1.0000   0.0096
 -18.300  -1.5694   0.04695   0.04320  -0.0289   1.0000   0.0097
 -18.200  -1.5725   0.04530   0.04152  -0.0295   1.0000   0.0097
 -18.000  -1.5771   0.04228   0.03842  -0.0306   1.0000   0.0098
 -17.900  -1.5786   0.04090   0.03700  -0.0310   1.0000   0.0098
 -17.800  -1.5795   0.03963   0.03569  -0.0313   1.0000   0.0098
 -17.700  -1.5800   0.03844   0.03447  -0.0316   1.0000   0.0099
 -17.600  -1.5803   0.03730   0.03329  -0.0318   1.0000   0.0099
 -17.500  -1.5803   0.03623   0.03219  -0.0319   1.0000   0.0100
 -17.400  -1.5799   0.03521   0.03114  -0.0320   1.0000   0.0100
 -17.300  -1.5791   0.03426   0.03016  -0.0320   1.0000   0.0101
 -17.200  -1.5779   0.03337   0.02924  -0.0320   1.0000   0.0101
 -17.000  -1.5749   0.03174   0.02754  -0.0318   1.0000   0.0102
 -16.900  -1.5732   0.03098   0.02675  -0.0316   1.0000   0.0103
 -16.800  -1.5712   0.03026   0.02601  -0.0314   1.0000   0.0103
 -16.700  -1.5689   0.02958   0.02530  -0.0311   1.0000   0.0104
 -16.600  -1.5664   0.02895   0.02464  -0.0308   1.0000   0.0104
 -16.500  -1.5638   0.02833   0.02399  -0.0305   1.0000   0.0105
 -16.400  -1.5611   0.02775   0.02339  -0.0301   1.0000   0.0105
 -16.300  -1.5581   0.02720   0.02281  -0.0297   1.0000   0.0106
 -16.200  -1.5549   0.02667   0.02226  -0.0292   1.0000   0.0106
 -16.000  -1.5479   0.02572   0.02126  -0.0283   1.0000   0.0108
 -15.900  -1.5442   0.02528   0.02079  -0.0277   1.0000   0.0108
 -15.800  -1.5403   0.02485   0.02034  -0.0272   1.0000   0.0108
 -15.700  -1.5362   0.02445   0.01991  -0.0266   1.0000   0.0109
 -15.600  -1.5321   0.02407   0.01950  -0.0260   1.0000   0.0109
 -15.500  -1.5274   0.02372   0.01913  -0.0255   1.0000   0.0110
 -15.400  -1.5228   0.02338   0.01877  -0.0249   1.0000   0.0110
 -15.300  -1.5181   0.02305   0.01842  -0.0242   1.0000   0.0111
 -15.200  -1.5133   0.02274   0.01808  -0.0236   1.0000   0.0111
 -15.000  -1.5029   0.02217   0.01747  -0.0223   1.0000   0.0111
 -14.900  -1.5016   0.02166   0.01692  -0.0212   1.0000   0.0113
 -14.800  -1.4989   0.02124   0.01647  -0.0202   1.0000   0.0115
 -14.700  -1.4955   0.02087   0.01608  -0.0192   1.0000   0.0116
 -14.600  -1.4915   0.02054   0.01573  -0.0183   1.0000   0.0117
 -14.500  -1.4869   0.02025   0.01541  -0.0174   1.0000   0.0119
 -14.400  -1.4816   0.01998   0.01513  -0.0166   1.0000   0.0120
 -14.300  -1.4753   0.01971   0.01485  -0.0160   1.0000   0.0121
 -14.200  -1.4687   0.01946   0.01459  -0.0155   1.0000   0.0122
 -14.000  -1.4544   0.01900   0.01409  -0.0145   1.0000   0.0125
 -13.900  -1.4469   0.01877   0.01386  -0.0141   1.0000   0.0126
 -13.800  -1.4393   0.01856   0.01363  -0.0137   1.0000   0.0127
 -13.700  -1.4315   0.01836   0.01342  -0.0133   1.0000   0.0128
 -13.600  -1.4236   0.01816   0.01321  -0.0129   1.0000   0.0130
 -13.500  -1.4155   0.01797   0.01300  -0.0125   1.0000   0.0131
 -13.400  -1.4073   0.01778   0.01280  -0.0121   1.0000   0.0132
 -13.300  -1.3991   0.01759   0.01260  -0.0118   1.0000   0.0133
 -13.200  -1.3907   0.01741   0.01241  -0.0114   1.0000   0.0134
 -13.000  -1.3736   0.01707   0.01204  -0.0108   1.0000   0.0136
 -12.900  -1.3649   0.01690   0.01186  -0.0105   1.0000   0.0137
 -12.800  -1.3562   0.01674   0.01168  -0.0102   1.0000   0.0137
 -12.700  -1.3475   0.01657   0.01149  -0.0099   1.0000   0.0138
 -12.600  -1.3402   0.01626   0.01116  -0.0093   1.0000   0.0141
 -12.500  -1.3323   0.01601   0.01089  -0.0089   1.0000   0.0144
 -12.400  -1.3240   0.01579   0.01066  -0.0085   1.0000   0.0146
 -12.300  -1.3155   0.01559   0.01046  -0.0082   1.0000   0.0148
 -12.200  -1.3067   0.01541   0.01027  -0.0079   1.0000   0.0150
 -12.000  -1.2889   0.01507   0.00992  -0.0073   1.0000   0.0154
 -11.900  -1.2798   0.01491   0.00976  -0.0070   1.0000   0.0156
 -11.800  -1.2707   0.01476   0.00959  -0.0067   1.0000   0.0158
 -11.700  -1.2615   0.01461   0.00944  -0.0065   1.0000   0.0159
 -11.600  -1.2522   0.01447   0.00929  -0.0062   1.0000   0.0161
 -11.500  -1.2429   0.01433   0.00914  -0.0059   1.0000   0.0163
 -11.400  -1.2336   0.01420   0.00900  -0.0057   1.0000   0.0164
 -11.300  -1.2241   0.01407   0.00886  -0.0054   1.0000   0.0166
 -11.200  -1.2147   0.01395   0.00873  -0.0052   1.0000   0.0167
 -11.000  -1.1969   0.01359   0.00835  -0.0045   1.0000   0.0172
 -10.900  -1.1880   0.01341   0.00817  -0.0042   1.0000   0.0176
 -10.800  -1.1790   0.01326   0.00801  -0.0038   1.0000   0.0180
 -10.700  -1.1699   0.01311   0.00786  -0.0035   1.0000   0.0183
 -10.600  -1.1608   0.01298   0.00773  -0.0032   1.0000   0.0186
 -10.500  -1.1516   0.01285   0.00760  -0.0029   1.0000   0.0189
 -10.400  -1.1425   0.01273   0.00747  -0.0025   1.0000   0.0192
 -10.300  -1.1333   0.01262   0.00736  -0.0022   1.0000   0.0195
 -10.200  -1.1242   0.01251   0.00724  -0.0018   1.0000   0.0197
 -10.000  -1.1059   0.01231   0.00703  -0.0011   1.0000   0.0200
  -9.900  -1.0971   0.01219   0.00689  -0.0007   1.0000   0.0203
  -9.800  -1.0888   0.01202   0.00672  -0.0002   1.0000   0.0209
  -9.700  -1.0802   0.01188   0.00658   0.0003   1.0000   0.0214
  -9.600  -1.0716   0.01176   0.00646   0.0008   1.0000   0.0218
  -9.500  -1.0630   0.01164   0.00635   0.0012   1.0000   0.0222
  -9.400  -1.0543   0.01153   0.00624   0.0017   1.0000   0.0226
  -9.300  -1.0456   0.01143   0.00614   0.0022   1.0000   0.0230
  -9.200  -1.0369   0.01133   0.00604   0.0027   1.0000   0.0234
  -9.000  -1.0195   0.01116   0.00585   0.0036   1.0000   0.0239
  -8.900  -1.0111   0.01106   0.00574   0.0041   1.0000   0.0243
  -8.800  -1.0030   0.01093   0.00561   0.0047   1.0000   0.0251
  -8.700  -0.9948   0.01081   0.00550   0.0053   1.0000   0.0258
  -8.600  -0.9865   0.01070   0.00541   0.0058   1.0000   0.0264
  -8.500  -0.9763   0.01060   0.00531   0.0060   0.9999   0.0270
  -8.400  -0.9634   0.01050   0.00521   0.0055   0.9996   0.0276
  -8.300  -0.9505   0.01041   0.00511   0.0051   0.9992   0.0281
  -8.200  -0.9375   0.01032   0.00502   0.0047   0.9988   0.0285
  -8.000  -0.9120   0.01005   0.00477   0.0038   0.9980   0.0309
  -7.900  -0.8991   0.00994   0.00467   0.0034   0.9975   0.0318
  -7.800  -0.8860   0.00984   0.00458   0.0029   0.9971   0.0326
  -7.700  -0.8729   0.00976   0.00449   0.0025   0.9966   0.0332
  -7.600  -0.8598   0.00966   0.00439   0.0020   0.9962   0.0343
  -7.500  -0.8468   0.00953   0.00429   0.0015   0.9957   0.0360
  -7.400  -0.8336   0.00942   0.00419   0.0011   0.9953   0.0373
  -7.300  -0.8204   0.00932   0.00410   0.0005   0.9949   0.0385
  -7.200  -0.8069   0.00925   0.00403   0.0000   0.9946   0.0392
  -7.000  -0.7803   0.00901   0.00383  -0.0010   0.9939   0.0432
  -6.900  -0.7675   0.00892   0.00374  -0.0014   0.9933   0.0447
  -6.800  -0.7551   0.00884   0.00367  -0.0017   0.9924   0.0458
  -6.700  -0.7425   0.00874   0.00357  -0.0020   0.9915   0.0481
  -6.600  -0.7299   0.00862   0.00348  -0.0024   0.9907   0.0505
  -6.500  -0.7170   0.00853   0.00341  -0.0028   0.9898   0.0525
  -6.400  -0.7041   0.00845   0.00333  -0.0032   0.9888   0.0541
  -6.300  -0.6916   0.00834   0.00324  -0.0035   0.9877   0.0576
  -6.200  -0.6789   0.00824   0.00316  -0.0039   0.9865   0.0604
  -6.000  -0.6534   0.00806   0.00301  -0.0046   0.9843   0.0660
  -5.900  -0.6406   0.00795   0.00293  -0.0050   0.9832   0.0695
  -5.800  -0.6295   0.00788   0.00287  -0.0050   0.9810   0.0720
  -5.700  -0.6189   0.00779   0.00280  -0.0049   0.9782   0.0761
  -5.600  -0.6080   0.00769   0.00273  -0.0048   0.9756   0.0805
  -5.500  -0.5964   0.00761   0.00267  -0.0049   0.9733   0.0835
  -5.400  -0.5850   0.00752   0.00259  -0.0049   0.9710   0.0885
  -5.300  -0.5743   0.00743   0.00253  -0.0048   0.9682   0.0929
  -5.200  -0.5638   0.00737   0.00247  -0.0047   0.9647   0.0961
  -5.000  -0.5428   0.00719   0.00234  -0.0043   0.9577   0.1076
  -4.900  -0.5322   0.00711   0.00228  -0.0042   0.9543   0.1132
  -4.800  -0.5218   0.00702   0.00222  -0.0040   0.9502   0.1195
  -4.700  -0.5113   0.00696   0.00217  -0.0038   0.9459   0.1241
  -4.600  -0.5010   0.00686   0.00210  -0.0036   0.9417   0.1318
  -4.500  -0.4903   0.00680   0.00205  -0.0035   0.9375   0.1373
  -4.400  -0.4799   0.00670   0.00198  -0.0033   0.9328   0.1458
  -4.300  -0.4693   0.00664   0.00193  -0.0031   0.9277   0.1519
  -4.200  -0.4590   0.00656   0.00187  -0.0029   0.9228   0.1605
  -4.000  -0.4377   0.00641   0.00177  -0.0027   0.9119   0.1766
  -3.900  -0.4270   0.00636   0.00172  -0.0025   0.9065   0.1841
  -3.800  -0.4163   0.00627   0.00167  -0.0024   0.9007   0.1934
  -3.700  -0.4057   0.00621   0.00162  -0.0023   0.8943   0.2017
  -3.600  -0.3950   0.00615   0.00158  -0.0022   0.8883   0.2105
  -3.500  -0.3843   0.00608   0.00153  -0.0020   0.8816   0.2202
  -3.300  -0.3628   0.00596   0.00144  -0.0018   0.8681   0.2389
  -3.200  -0.3520   0.00592   0.00140  -0.0017   0.8605   0.2481
  -3.000  -0.3304   0.00581   0.00132  -0.0015   0.8457   0.2678
  -2.800  -0.3088   0.00571   0.00125  -0.0013   0.8302   0.2882
  -2.700  -0.2979   0.00568   0.00122  -0.0012   0.8222   0.2969
  -2.600  -0.2869   0.00563   0.00119  -0.0012   0.8139   0.3067
  -2.500  -0.2761   0.00559   0.00116  -0.0011   0.8058   0.3176
  -2.400  -0.2651   0.00556   0.00113  -0.0010   0.7968   0.3264
  -2.300  -0.2543   0.00551   0.00110  -0.0009   0.7886   0.3378
  -2.200  -0.2433   0.00548   0.00108  -0.0009   0.7793   0.3475
  -2.000  -0.2214   0.00542   0.00103  -0.0008   0.7608   0.3679
  -1.900  -0.2104   0.00539   0.00101  -0.0007   0.7522   0.3780
  -1.800  -0.1994   0.00537   0.00099  -0.0006   0.7429   0.3877
  -1.700  -0.1884   0.00533   0.00097  -0.0006   0.7338   0.3984
  -1.500  -0.1663   0.00529   0.00093  -0.0005   0.7151   0.4185
  -1.400  -0.1553   0.00528   0.00092  -0.0005   0.7054   0.4286
  -1.300  -0.1442   0.00526   0.00090  -0.0004   0.6959   0.4390
  -1.200  -0.1332   0.00524   0.00089  -0.0004   0.6866   0.4487
  -1.000  -0.1110   0.00521   0.00086  -0.0003   0.6666   0.4690
  -0.800  -0.0888   0.00519   0.00085  -0.0002   0.6475   0.4888
  -0.700  -0.0778   0.00518   0.00084  -0.0002   0.6377   0.4990
  -0.600  -0.0666   0.00517   0.00083  -0.0002   0.6277   0.5084
  -0.500  -0.0556   0.00516   0.00082  -0.0001   0.6183   0.5191
  -0.400  -0.0445   0.00516   0.00082  -0.0001   0.6074   0.5292
  -0.300  -0.0333   0.00515   0.00082  -0.0001   0.5981   0.5389
  -0.200  -0.0223   0.00515   0.00081  -0.0000   0.5882   0.5491
   0.000  -0.0000   0.00514   0.00081  -0.0000   0.5686   0.5688
   0.100   0.0111   0.00515   0.00081   0.0000   0.5585   0.5783
   0.200   0.0223   0.00515   0.00081   0.0000   0.5489   0.5888
   0.300   0.0333   0.00515   0.00082   0.0001   0.5384   0.5985
   0.400   0.0445   0.00515   0.00082   0.0001   0.5292   0.6081
   0.500   0.0556   0.00516   0.00082   0.0001   0.5191   0.6184
   0.600   0.0667   0.00517   0.00083   0.0002   0.5083   0.6271
   0.700   0.0778   0.00518   0.00084   0.0002   0.4990   0.6375
   0.800   0.0888   0.00519   0.00085   0.0002   0.4890   0.6473
   1.000   0.1110   0.00521   0.00086   0.0003   0.4692   0.6669
   1.100   0.1221   0.00523   0.00088   0.0003   0.4585   0.6765
   1.200   0.1332   0.00524   0.00089   0.0004   0.4488   0.6864
   1.300   0.1442   0.00526   0.00090   0.0004   0.4379   0.6957
   1.400   0.1554   0.00527   0.00092   0.0004   0.4289   0.7053
   1.500   0.1663   0.00529   0.00093   0.0005   0.4184   0.7150
   1.700   0.1884   0.00534   0.00097   0.0006   0.3983   0.7335
   1.800   0.1994   0.00537   0.00099   0.0006   0.3879   0.7425
   2.000   0.2214   0.00542   0.00103   0.0008   0.3678   0.7614
   2.100   0.2323   0.00546   0.00105   0.0008   0.3573   0.7709
   2.200   0.2433   0.00548   0.00108   0.0009   0.3477   0.7793
   2.300   0.2543   0.00552   0.00110   0.0009   0.3377   0.7884
   2.400   0.2651   0.00556   0.00113   0.0010   0.3267   0.7970
   2.500   0.2762   0.00559   0.00116   0.0011   0.3175   0.8059
   2.600   0.2869   0.00563   0.00119   0.0012   0.3067   0.8138
   2.700   0.2979   0.00567   0.00122   0.0012   0.2970   0.8224
   2.800   0.3088   0.00571   0.00125   0.0013   0.2884   0.8304
   3.000   0.3304   0.00580   0.00132   0.0015   0.2679   0.8459
   3.100   0.3412   0.00586   0.00136   0.0016   0.2582   0.8537
   3.200   0.3520   0.00592   0.00140   0.0017   0.2479   0.8605
   3.300   0.3628   0.00596   0.00144   0.0018   0.2388   0.8682
   3.500   0.3843   0.00608   0.00153   0.0020   0.2205   0.8815
   3.600   0.3950   0.00615   0.00158   0.0022   0.2107   0.8883
   3.700   0.4057   0.00622   0.00162   0.0023   0.2015   0.8941
   3.800   0.4164   0.00627   0.00167   0.0024   0.1936   0.9006
   4.000   0.4377   0.00641   0.00177   0.0027   0.1764   0.9118
   4.200   0.4589   0.00656   0.00187   0.0029   0.1605   0.9229
   4.300   0.4693   0.00664   0.00193   0.0031   0.1519   0.9276
   4.400   0.4799   0.00670   0.00198   0.0033   0.1460   0.9327
   4.500   0.4903   0.00680   0.00205   0.0035   0.1371   0.9376
   4.600   0.5010   0.00686   0.00210   0.0036   0.1317   0.9416
   4.700   0.5113   0.00696   0.00217   0.0038   0.1241   0.9458
   4.800   0.5218   0.00702   0.00222   0.0040   0.1195   0.9503
   5.000   0.5428   0.00719   0.00234   0.0043   0.1077   0.9577
   5.100   0.5534   0.00726   0.00240   0.0045   0.1028   0.9611
   5.200   0.5638   0.00737   0.00247   0.0047   0.0961   0.9648
   5.300   0.5743   0.00743   0.00253   0.0048   0.0930   0.9682
   5.400   0.5850   0.00752   0.00259   0.0049   0.0885   0.9710
   5.500   0.5964   0.00761   0.00267   0.0049   0.0835   0.9733
   5.600   0.6080   0.00769   0.00273   0.0048   0.0804   0.9757
   5.700   0.6190   0.00779   0.00280   0.0048   0.0761   0.9783
   5.800   0.6295   0.00788   0.00287   0.0050   0.0721   0.9810
   6.000   0.6534   0.00806   0.00301   0.0046   0.0659   0.9843
   6.100   0.6663   0.00816   0.00310   0.0042   0.0624   0.9854
   6.200   0.6790   0.00823   0.00316   0.0039   0.0604   0.9865
   6.300   0.6916   0.00833   0.00324   0.0035   0.0577   0.9877
   6.400   0.7042   0.00845   0.00333   0.0032   0.0542   0.9888
   6.500   0.7170   0.00853   0.00341   0.0028   0.0525   0.9898
   6.600   0.7299   0.00862   0.00348   0.0024   0.0504   0.9907
   6.700   0.7426   0.00874   0.00357   0.0020   0.0481   0.9915
   6.800   0.7552   0.00884   0.00367   0.0017   0.0458   0.9924
   7.000   0.7804   0.00901   0.00383   0.0010   0.0432   0.9939
   7.100   0.7938   0.00913   0.00392   0.0005   0.0414   0.9942
   7.200   0.8070   0.00925   0.00403  -0.0000   0.0392   0.9946
   7.300   0.8205   0.00933   0.00410  -0.0006   0.0385   0.9949
   7.400   0.8338   0.00942   0.00419  -0.0011   0.0373   0.9953
   7.500   0.8469   0.00953   0.00429  -0.0016   0.0359   0.9957
   7.600   0.8599   0.00965   0.00439  -0.0020   0.0343   0.9962
   7.700   0.8730   0.00976   0.00449  -0.0025   0.0332   0.9966
   7.800   0.8861   0.00984   0.00458  -0.0030   0.0326   0.9971
   8.000   0.9121   0.01005   0.00477  -0.0039   0.0309   0.9980
   8.100   0.9249   0.01017   0.00488  -0.0043   0.0298   0.9984
   8.200   0.9376   0.01032   0.00502  -0.0047   0.0286   0.9989
   8.300   0.9506   0.01041   0.00511  -0.0051   0.0281   0.9992
   8.400   0.9635   0.01050   0.00521  -0.0056   0.0276   0.9996
   8.500   0.9764   0.01060   0.00531  -0.0060   0.0270   0.9999
   8.600   0.9864   0.01070   0.00540  -0.0058   0.0264   1.0000
   8.700   0.9947   0.01081   0.00550  -0.0053   0.0258   1.0000
   8.800   1.0030   0.01092   0.00561  -0.0047   0.0251   1.0000
   9.000   1.0195   0.01116   0.00585  -0.0036   0.0239   1.0000
   9.100   1.0282   0.01124   0.00594  -0.0031   0.0236   1.0000
   9.200   1.0369   0.01133   0.00604  -0.0026   0.0234   1.0000
   9.300   1.0456   0.01143   0.00613  -0.0022   0.0230   1.0000
   9.400   1.0543   0.01153   0.00624  -0.0017   0.0226   1.0000
   9.500   1.0629   0.01164   0.00635  -0.0012   0.0222   1.0000
   9.600   1.0716   0.01175   0.00646  -0.0008   0.0218   1.0000
   9.700   1.0802   0.01188   0.00658  -0.0003   0.0214   1.0000
   9.800   1.0888   0.01202   0.00672   0.0002   0.0209   1.0000
  10.000   1.1059   0.01231   0.00702   0.0011   0.0200   1.0000
  10.100   1.1151   0.01240   0.00713   0.0015   0.0199   1.0000
  10.200   1.1242   0.01251   0.00724   0.0018   0.0197   1.0000
  10.300   1.1333   0.01261   0.00735   0.0022   0.0195   1.0000
  10.400   1.1425   0.01273   0.00747   0.0025   0.0192   1.0000
  10.500   1.1516   0.01285   0.00760   0.0029   0.0189   1.0000
  10.600   1.1608   0.01298   0.00773   0.0032   0.0186   1.0000
  10.700   1.1700   0.01311   0.00786   0.0035   0.0183   1.0000
  10.800   1.1791   0.01326   0.00800   0.0038   0.0180   1.0000
  11.000   1.1969   0.01360   0.00835   0.0045   0.0172   1.0000
  11.100   1.2054   0.01382   0.00859   0.0049   0.0168   1.0000
  11.200   1.2148   0.01395   0.00873   0.0052   0.0167   1.0000
  11.300   1.2243   0.01407   0.00886   0.0054   0.0166   1.0000
  11.400   1.2337   0.01419   0.00899   0.0057   0.0164   1.0000
  11.500   1.2430   0.01433   0.00914   0.0059   0.0163   1.0000
  11.600   1.2524   0.01447   0.00928   0.0062   0.0161   1.0000
  11.700   1.2616   0.01461   0.00944   0.0064   0.0159   1.0000
  11.800   1.2708   0.01476   0.00959   0.0067   0.0158   1.0000
  12.000   1.2890   0.01507   0.00992   0.0073   0.0154   1.0000
  12.100   1.2980   0.01524   0.01010   0.0076   0.0152   1.0000
  12.200   1.3069   0.01541   0.01027   0.0079   0.0150   1.0000
  12.300   1.3156   0.01559   0.01046   0.0082   0.0148   1.0000
  12.400   1.3242   0.01579   0.01066   0.0085   0.0146   1.0000
  12.500   1.3325   0.01601   0.01090   0.0089   0.0143   1.0000
  12.600   1.3403   0.01627   0.01117   0.0093   0.0141   1.0000
  12.700   1.3476   0.01658   0.01150   0.0098   0.0138   1.0000
  12.800   1.3564   0.01674   0.01168   0.0101   0.0137   1.0000
  13.000   1.3738   0.01707   0.01204   0.0107   0.0136   1.0000
  13.100   1.3824   0.01724   0.01222   0.0111   0.0135   1.0000
  13.200   1.3909   0.01741   0.01241   0.0114   0.0134   1.0000
  13.300   1.3993   0.01759   0.01260   0.0117   0.0133   1.0000
  13.400   1.4076   0.01778   0.01280   0.0121   0.0132   1.0000
  13.500   1.4157   0.01797   0.01301   0.0124   0.0131   1.0000
  13.600   1.4238   0.01816   0.01321   0.0128   0.0130   1.0000
  13.700   1.4318   0.01836   0.01342   0.0132   0.0128   1.0000
  13.800   1.4396   0.01856   0.01364   0.0136   0.0127   1.0000
  14.000   1.4547   0.01900   0.01409   0.0145   0.0125   1.0000
  14.100   1.4620   0.01922   0.01433   0.0149   0.0123   1.0000
  14.200   1.4690   0.01946   0.01459   0.0154   0.0122   1.0000
  14.300   1.4758   0.01971   0.01485   0.0160   0.0121   1.0000
  14.400   1.4821   0.01997   0.01512   0.0166   0.0120   1.0000
  14.500   1.4874   0.02025   0.01541   0.0173   0.0119   1.0000
  14.600   1.4919   0.02055   0.01573   0.0182   0.0117   1.0000
  14.700   1.4960   0.02088   0.01608   0.0191   0.0116   1.0000
  14.800   1.4993   0.02125   0.01649   0.0201   0.0114   1.0000
  15.000   1.5036   0.02216   0.01747   0.0222   0.0111   1.0000
  15.100   1.5088   0.02245   0.01777   0.0228   0.0111   1.0000
  15.200   1.5139   0.02274   0.01809   0.0235   0.0111   1.0000
  15.300   1.5188   0.02305   0.01842   0.0241   0.0111   1.0000
  15.400   1.5237   0.02337   0.01876   0.0247   0.0110   1.0000
  15.500   1.5285   0.02370   0.01911   0.0253   0.0110   1.0000
  15.600   1.5329   0.02406   0.01950   0.0259   0.0109   1.0000
  15.700   1.5371   0.02445   0.01990   0.0265   0.0109   1.0000
  15.800   1.5413   0.02484   0.02033   0.0270   0.0108   1.0000
  16.000   1.5490   0.02570   0.02124   0.0281   0.0107   1.0000
  16.100   1.5525   0.02617   0.02173   0.0286   0.0107   1.0000
  16.200   1.5558   0.02667   0.02226   0.0291   0.0106   1.0000
  16.300   1.5592   0.02719   0.02280   0.0295   0.0106   1.0000
  16.400   1.5622   0.02773   0.02337   0.0299   0.0105   1.0000
  16.500   1.5653   0.02829   0.02395   0.0303   0.0105   1.0000
  16.600   1.5678   0.02890   0.02459   0.0306   0.0104   1.0000
  16.700   1.5703   0.02954   0.02526   0.0309   0.0104   1.0000
  16.800   1.5727   0.03022   0.02596   0.0312   0.0103   1.0000
  17.000   1.5765   0.03169   0.02749   0.0316   0.0102   1.0000
  17.100   1.5781   0.03248   0.02832   0.0317   0.0102   1.0000
  17.200   1.5796   0.03332   0.02918   0.0318   0.0101   1.0000
  17.300   1.5808   0.03420   0.03010   0.0318   0.0101   1.0000
  17.400   1.5816   0.03516   0.03109   0.0318   0.0100   1.0000
  17.500   1.5821   0.03617   0.03212   0.0317   0.0100   1.0000
  17.600   1.5822   0.03723   0.03322   0.0315   0.0099   1.0000
  17.700   1.5819   0.03838   0.03440   0.0313   0.0099   1.0000
  17.800   1.5812   0.03959   0.03565   0.0311   0.0098   1.0000
  18.000   1.5793   0.04218   0.03831   0.0303   0.0098   1.0000
  18.100   1.5772   0.04365   0.03983   0.0298   0.0097   1.0000
  18.200   1.5748   0.04520   0.04142   0.0293   0.0097   1.0000
  18.300   1.5716   0.04686   0.04312   0.0286   0.0097   1.0000
  18.400   1.5682   0.04858   0.04488   0.0279   0.0096   1.0000
  18.500   1.5639   0.05046   0.04680   0.0271   0.0096   1.0000
  18.600   1.5587   0.05249   0.04888   0.0262   0.0096   1.0000
  18.700   1.5530   0.05463   0.05107   0.0252   0.0095   1.0000
  18.800   1.5463   0.05693   0.05342   0.0242   0.0095   1.0000
  19.000   1.5300   0.06200   0.05859   0.0217   0.0095   1.0000
  19.100   1.5215   0.06465   0.06130   0.0204   0.0095   1.0000
  19.200   1.5116   0.06754   0.06425   0.0190   0.0095   1.0000
  19.300   1.5003   0.07069   0.06745   0.0174   0.0094   1.0000
  19.400   1.4883   0.07395   0.07077   0.0158   0.0095   1.0000
  19.500   1.4750   0.07747   0.07436   0.0140   0.0094   1.0000
  19.600   1.4614   0.08108   0.07803   0.0121   0.0095   1.0000
  19.700   1.4466   0.08491   0.08193   0.0102   0.0095   1.0000
  19.800   1.4311   0.08889   0.08597   0.0081   0.0095   1.0000
