  
       XFOIL         Version 6.99
  
 Calculated polar for: NACA 0012                                       
  
 1 1 Reynolds number fixed          Mach number fixed         
  
 xtrf =   1.000 (top)        1.000 (bottom)  
 Mach =   0.000     Re =     2.500 e 6     Ncrit =   9.000
  
   alpha    CL        CD       CDp       CM     Top_Xtr  Bot_Xtr
  ------ -------- --------- --------- -------- -------- --------
 -20.000  -1.4589   0.08695   0.08406  -0.0097   1.0000   0.0087
 -19.900  -1.4774   0.08252   0.07955  -0.0119   1.0000   0.0087
 -19.800  -1.4929   0.07862   0.07559  -0.0139   1.0000   0.0087
 -19.700  -1.5063   0.07510   0.07201  -0.0157   1.0000   0.0087
 -19.600  -1.5205   0.07151   0.06835  -0.0175   1.0000   0.0087
 -19.500  -1.5323   0.06832   0.06511  -0.0191   1.0000   0.0087
 -19.400  -1.5414   0.06556   0.06229  -0.0205   1.0000   0.0087
 -19.300  -1.5505   0.06281   0.05949  -0.0218   1.0000   0.0087
 -19.200  -1.5585   0.06029   0.05692  -0.0230   1.0000   0.0087
 -19.000  -1.5720   0.05570   0.05223  -0.0252   1.0000   0.0088
 -18.900  -1.5774   0.05362   0.05011  -0.0261   1.0000   0.0088
 -18.800  -1.5816   0.05172   0.04816  -0.0269   1.0000   0.0088
 -18.700  -1.5852   0.04994   0.04635  -0.0277   1.0000   0.0088
 -18.600  -1.5888   0.04817   0.04453  -0.0284   1.0000   0.0088
 -18.500  -1.5910   0.04663   0.04295  -0.0290   1.0000   0.0088
 -18.400  -1.5936   0.04506   0.04134  -0.0296   1.0000   0.0088
 -18.300  -1.5955   0.04360   0.03984  -0.0301   1.0000   0.0088
 -18.200  -1.5961   0.04232   0.03853  -0.0305   1.0000   0.0088
 -18.000  -1.6033   0.03910   0.03521  -0.0314   1.0000   0.0089
 -17.900  -1.6063   0.03764   0.03371  -0.0318   1.0000   0.0090
 -17.800  -1.6094   0.03622   0.03224  -0.0320   1.0000   0.0090
 -17.700  -1.6114   0.03496   0.03093  -0.0321   1.0000   0.0091
 -17.600  -1.6125   0.03382   0.02976  -0.0321   1.0000   0.0092
 -17.500  -1.6131   0.03277   0.02866  -0.0320   1.0000   0.0092
 -17.400  -1.6134   0.03179   0.02764  -0.0319   1.0000   0.0093
 -17.300  -1.6131   0.03089   0.02671  -0.0317   1.0000   0.0094
 -17.200  -1.6122   0.03008   0.02587  -0.0315   1.0000   0.0095
 -17.000  -1.6092   0.02861   0.02434  -0.0309   1.0000   0.0096
 -16.900  -1.6073   0.02795   0.02365  -0.0305   1.0000   0.0097
 -16.800  -1.6050   0.02734   0.02302  -0.0301   1.0000   0.0097
 -16.700  -1.6023   0.02677   0.02243  -0.0296   1.0000   0.0098
 -16.600  -1.5994   0.02623   0.02187  -0.0292   1.0000   0.0099
 -16.500  -1.5963   0.02572   0.02134  -0.0287   1.0000   0.0099
 -16.400  -1.5930   0.02524   0.02084  -0.0281   1.0000   0.0100
 -16.300  -1.5896   0.02479   0.02036  -0.0276   1.0000   0.0100
 -16.200  -1.5859   0.02435   0.01991  -0.0270   1.0000   0.0101
 -16.000  -1.5780   0.02356   0.01907  -0.0258   1.0000   0.0102
 -15.900  -1.5738   0.02319   0.01868  -0.0252   1.0000   0.0103
 -15.800  -1.5695   0.02284   0.01831  -0.0246   1.0000   0.0104
 -15.700  -1.5649   0.02250   0.01795  -0.0239   1.0000   0.0104
 -15.600  -1.5604   0.02217   0.01761  -0.0232   1.0000   0.0105
 -15.500  -1.5556   0.02187   0.01728  -0.0226   1.0000   0.0106
 -15.400  -1.5507   0.02158   0.01697  -0.0219   1.0000   0.0106
 -15.300  -1.5458   0.02129   0.01667  -0.0212   1.0000   0.0107
 -15.200  -1.5407   0.02102   0.01637  -0.0205   1.0000   0.0107
 -15.000  -1.5301   0.02051   0.01583  -0.0190   1.0000   0.0108
 -14.900  -1.5246   0.02028   0.01558  -0.0183   1.0000   0.0109
 -14.800  -1.5189   0.02006   0.01535  -0.0175   1.0000   0.0110
 -14.700  -1.5131   0.01984   0.01511  -0.0168   1.0000   0.0110
 -14.600  -1.5066   0.01963   0.01488  -0.0162   1.0000   0.0110
 -14.500  -1.4996   0.01942   0.01466  -0.0157   1.0000   0.0111
 -14.400  -1.4923   0.01922   0.01444  -0.0152   1.0000   0.0111
 -14.300  -1.4847   0.01902   0.01423  -0.0148   1.0000   0.0111
 -14.200  -1.4787   0.01870   0.01388  -0.0142   1.0000   0.0113
 -14.000  -1.4657   0.01810   0.01324  -0.0130   1.0000   0.0116
 -13.900  -1.4585   0.01784   0.01297  -0.0125   1.0000   0.0118
 -13.800  -1.4510   0.01761   0.01272  -0.0121   1.0000   0.0120
 -13.700  -1.4432   0.01739   0.01249  -0.0117   1.0000   0.0121
 -13.600  -1.4351   0.01718   0.01228  -0.0113   1.0000   0.0123
 -13.500  -1.4270   0.01699   0.01207  -0.0109   1.0000   0.0124
 -13.400  -1.4186   0.01680   0.01188  -0.0106   1.0000   0.0126
 -13.300  -1.4102   0.01661   0.01169  -0.0103   1.0000   0.0127
 -13.200  -1.4017   0.01644   0.01150  -0.0099   1.0000   0.0129
 -13.000  -1.3842   0.01610   0.01115  -0.0093   1.0000   0.0131
 -12.900  -1.3754   0.01594   0.01097  -0.0090   1.0000   0.0132
 -12.800  -1.3665   0.01578   0.01080  -0.0087   1.0000   0.0133
 -12.700  -1.3575   0.01562   0.01064  -0.0085   1.0000   0.0135
 -12.600  -1.3485   0.01547   0.01047  -0.0082   1.0000   0.0135
 -12.500  -1.3394   0.01532   0.01032  -0.0079   1.0000   0.0136
 -12.400  -1.3302   0.01519   0.01017  -0.0077   1.0000   0.0137
 -12.300  -1.3209   0.01505   0.01002  -0.0074   1.0000   0.0137
 -12.200  -1.3123   0.01485   0.00981  -0.0071   1.0000   0.0139
 -12.000  -1.2952   0.01442   0.00936  -0.0064   1.0000   0.0145
 -11.900  -1.2863   0.01424   0.00917  -0.0061   1.0000   0.0148
 -11.800  -1.2772   0.01408   0.00901  -0.0058   1.0000   0.0150
 -11.700  -1.2680   0.01393   0.00885  -0.0055   1.0000   0.0152
 -11.600  -1.2587   0.01378   0.00870  -0.0052   1.0000   0.0154
 -11.500  -1.2494   0.01364   0.00856  -0.0050   1.0000   0.0156
 -11.400  -1.2401   0.01350   0.00841  -0.0047   1.0000   0.0158
 -11.300  -1.2307   0.01337   0.00828  -0.0044   1.0000   0.0160
 -11.200  -1.2213   0.01325   0.00815  -0.0042   1.0000   0.0162
 -11.000  -1.2023   0.01301   0.00790  -0.0037   1.0000   0.0165
 -10.900  -1.1928   0.01290   0.00778  -0.0034   1.0000   0.0166
 -10.800  -1.1833   0.01280   0.00767  -0.0031   1.0000   0.0167
 -10.700  -1.1744   0.01264   0.00750  -0.0028   1.0000   0.0171
 -10.600  -1.1657   0.01247   0.00732  -0.0024   1.0000   0.0175
 -10.500  -1.1568   0.01232   0.00718  -0.0020   1.0000   0.0179
 -10.400  -1.1479   0.01219   0.00705  -0.0016   1.0000   0.0183
 -10.300  -1.1390   0.01207   0.00693  -0.0012   1.0000   0.0186
 -10.200  -1.1300   0.01196   0.00682  -0.0008   1.0000   0.0189
 -10.000  -1.1121   0.01174   0.00660  -0.0000   1.0000   0.0195
  -9.900  -1.1031   0.01164   0.00649   0.0004   1.0000   0.0197
  -9.800  -1.0941   0.01155   0.00640   0.0008   1.0000   0.0199
  -9.700  -1.0851   0.01146   0.00630   0.0012   1.0000   0.0200
  -9.600  -1.0764   0.01136   0.00619   0.0017   1.0000   0.0203
  -9.500  -1.0682   0.01122   0.00605   0.0022   1.0000   0.0209
  -9.400  -1.0598   0.01110   0.00593   0.0027   1.0000   0.0215
  -9.300  -1.0514   0.01098   0.00582   0.0033   1.0000   0.0219
  -9.200  -1.0430   0.01088   0.00572   0.0038   1.0000   0.0223
  -9.000  -1.0261   0.01069   0.00553   0.0048   1.0000   0.0231
  -8.900  -1.0176   0.01060   0.00544   0.0053   1.0000   0.0235
  -8.800  -1.0052   0.01051   0.00535   0.0050   0.9998   0.0238
  -8.700  -0.9924   0.01043   0.00526   0.0046   0.9995   0.0240
  -8.600  -0.9800   0.01028   0.00512   0.0043   0.9991   0.0251
  -8.500  -0.9674   0.01016   0.00500   0.0039   0.9988   0.0260
  -8.400  -0.9547   0.01004   0.00490   0.0035   0.9984   0.0267
  -8.300  -0.9419   0.00994   0.00481   0.0031   0.9980   0.0274
  -8.200  -0.9290   0.00985   0.00471   0.0027   0.9976   0.0279
  -8.000  -0.9033   0.00965   0.00452   0.0018   0.9967   0.0294
  -7.900  -0.8905   0.00953   0.00441   0.0014   0.9963   0.0306
  -7.800  -0.8775   0.00943   0.00432   0.0010   0.9959   0.0316
  -7.700  -0.8645   0.00933   0.00423   0.0005   0.9955   0.0324
  -7.600  -0.8513   0.00925   0.00415   0.0000   0.9951   0.0331
  -7.500  -0.8381   0.00916   0.00406  -0.0004   0.9948   0.0339
  -7.400  -0.8250   0.00904   0.00396  -0.0009   0.9944   0.0357
  -7.300  -0.8118   0.00893   0.00387  -0.0014   0.9941   0.0372
  -7.200  -0.7985   0.00884   0.00379  -0.0019   0.9938   0.0384
  -7.000  -0.7738   0.00866   0.00362  -0.0025   0.9923   0.0411
  -6.900  -0.7615   0.00855   0.00353  -0.0028   0.9913   0.0429
  -6.800  -0.7492   0.00846   0.00345  -0.0031   0.9902   0.0445
  -6.700  -0.7367   0.00839   0.00338  -0.0034   0.9891   0.0457
  -6.600  -0.7244   0.00830   0.00331  -0.0036   0.9878   0.0475
  -6.500  -0.7122   0.00819   0.00322  -0.0039   0.9865   0.0500
  -6.400  -0.6997   0.00810   0.00315  -0.0042   0.9853   0.0521
  -6.300  -0.6870   0.00803   0.00308  -0.0045   0.9842   0.0537
  -6.200  -0.6745   0.00793   0.00300  -0.0049   0.9829   0.0569
  -6.000  -0.6535   0.00777   0.00287  -0.0045   0.9777   0.0617
  -5.900  -0.6423   0.00770   0.00281  -0.0045   0.9751   0.0639
  -5.800  -0.6312   0.00760   0.00273  -0.0045   0.9726   0.0677
  -5.700  -0.6200   0.00752   0.00266  -0.0045   0.9702   0.0708
  -5.600  -0.6095   0.00746   0.00261  -0.0044   0.9672   0.0733
  -5.500  -0.5991   0.00736   0.00254  -0.0042   0.9637   0.0779
  -5.400  -0.5887   0.00728   0.00247  -0.0040   0.9601   0.0817
  -5.200  -0.5676   0.00713   0.00235  -0.0037   0.9532   0.0897
  -5.000  -0.5465   0.00700   0.00224  -0.0033   0.9446   0.0975
  -4.900  -0.5363   0.00691   0.00217  -0.0031   0.9404   0.1037
  -4.800  -0.5254   0.00684   0.00212  -0.0030   0.9363   0.1085
  -4.700  -0.5149   0.00676   0.00206  -0.0029   0.9313   0.1149
  -4.600  -0.5044   0.00670   0.00200  -0.0027   0.9263   0.1204
  -4.500  -0.4937   0.00664   0.00195  -0.0026   0.9217   0.1255
  -4.400  -0.4830   0.00655   0.00189  -0.0025   0.9163   0.1329
  -4.300  -0.4724   0.00650   0.00184  -0.0023   0.9105   0.1388
  -4.200  -0.4618   0.00642   0.00179  -0.0022   0.9052   0.1470
  -4.000  -0.4404   0.00630   0.00169  -0.0019   0.8927   0.1613
  -3.900  -0.4295   0.00624   0.00164  -0.0019   0.8870   0.1678
  -3.800  -0.4188   0.00617   0.00159  -0.0017   0.8802   0.1771
  -3.700  -0.4081   0.00612   0.00155  -0.0016   0.8736   0.1849
  -3.600  -0.3972   0.00605   0.00150  -0.0015   0.8665   0.1936
  -3.500  -0.3865   0.00601   0.00146  -0.0014   0.8591   0.2016
  -3.400  -0.3756   0.00595   0.00142  -0.0014   0.8521   0.2110
  -3.300  -0.3648   0.00589   0.00137  -0.0013   0.8443   0.2202
  -3.200  -0.3539   0.00585   0.00134  -0.0012   0.8368   0.2282
  -3.000  -0.3321   0.00575   0.00126  -0.0010   0.8211   0.2473
  -2.900  -0.3212   0.00570   0.00123  -0.0010   0.8124   0.2572
  -2.800  -0.3104   0.00565   0.00119  -0.0009   0.8045   0.2672
  -2.700  -0.2993   0.00562   0.00116  -0.0008   0.7957   0.2755
  -2.600  -0.2885   0.00558   0.00113  -0.0008   0.7875   0.2861
  -2.500  -0.2774   0.00555   0.00110  -0.0007   0.7783   0.2950
  -2.400  -0.2665   0.00551   0.00107  -0.0007   0.7695   0.3047
  -2.300  -0.2555   0.00548   0.00105  -0.0006   0.7602   0.3144
  -2.200  -0.2444   0.00545   0.00102  -0.0006   0.7512   0.3242
  -2.000  -0.2224   0.00538   0.00098  -0.0005   0.7326   0.3445
  -1.900  -0.2114   0.00536   0.00096  -0.0004   0.7233   0.3546
  -1.800  -0.2003   0.00533   0.00094  -0.0004   0.7144   0.3637
  -1.700  -0.1892   0.00532   0.00092  -0.0004   0.7051   0.3737
  -1.600  -0.1782   0.00528   0.00090  -0.0003   0.6954   0.3841
  -1.500  -0.1671   0.00527   0.00088  -0.0003   0.6861   0.3937
  -1.400  -0.1560   0.00525   0.00087  -0.0003   0.6763   0.4037
  -1.300  -0.1449   0.00522   0.00085  -0.0002   0.6675   0.4145
  -1.000  -0.1115   0.00519   0.00082  -0.0002   0.6380   0.4430
  -0.900  -0.1004   0.00517   0.00081  -0.0002   0.6284   0.4528
  -0.800  -0.0893   0.00516   0.00080  -0.0001   0.6187   0.4630
  -0.700  -0.0781   0.00516   0.00079  -0.0001   0.6089   0.4724
  -0.600  -0.0669   0.00514   0.00079  -0.0001   0.5997   0.4826
  -0.500  -0.0558   0.00514   0.00078  -0.0001   0.5893   0.4921
  -0.400  -0.0446   0.00513   0.00078  -0.0001   0.5798   0.5027
  -0.300  -0.0335   0.00512   0.00077  -0.0000   0.5706   0.5125
  -0.200  -0.0223   0.00512   0.00077  -0.0000   0.5603   0.5221
   0.000  -0.0000   0.00513   0.00077  -0.0000   0.5410   0.5413
   0.100   0.0112   0.00512   0.00077   0.0000   0.5316   0.5507
   0.200   0.0223   0.00512   0.00077   0.0000   0.5217   0.5606
   0.300   0.0335   0.00513   0.00077   0.0000   0.5116   0.5708
   0.400   0.0446   0.00513   0.00078   0.0001   0.5025   0.5805
   0.500   0.0558   0.00514   0.00078   0.0001   0.4917   0.5894
   0.600   0.0670   0.00514   0.00079   0.0001   0.4829   0.5996
   0.700   0.0781   0.00516   0.00079   0.0001   0.4725   0.6089
   0.800   0.0893   0.00516   0.00080   0.0001   0.4632   0.6190
   1.000   0.1115   0.00519   0.00082   0.0002   0.4430   0.6381
   1.100   0.1227   0.00519   0.00083   0.0002   0.4337   0.6475
   1.300   0.1449   0.00523   0.00085   0.0002   0.4133   0.6673
   1.400   0.1560   0.00525   0.00087   0.0003   0.4038   0.6761
   1.500   0.1671   0.00527   0.00088   0.0003   0.3936   0.6863
   1.600   0.1782   0.00528   0.00090   0.0003   0.3846   0.6955
   1.700   0.1892   0.00532   0.00092   0.0004   0.3737   0.7047
   1.800   0.2004   0.00533   0.00094   0.0004   0.3643   0.7139
   2.000   0.2224   0.00539   0.00098   0.0005   0.3440   0.7334
   2.100   0.2335   0.00541   0.00100   0.0005   0.3351   0.7421
   2.200   0.2444   0.00545   0.00102   0.0006   0.3243   0.7514
   2.300   0.2555   0.00547   0.00105   0.0006   0.3149   0.7603
   2.400   0.2665   0.00551   0.00107   0.0007   0.3055   0.7695
   2.500   0.2774   0.00555   0.00110   0.0007   0.2948   0.7781
   2.600   0.2885   0.00558   0.00113   0.0008   0.2863   0.7872
   2.700   0.2993   0.00562   0.00116   0.0008   0.2754   0.7956
   2.800   0.3104   0.00565   0.00119   0.0009   0.2675   0.8047
   3.000   0.3321   0.00576   0.00126   0.0010   0.2468   0.8211
   3.100   0.3431   0.00579   0.00130   0.0011   0.2390   0.8288
   3.200   0.3539   0.00585   0.00134   0.0012   0.2282   0.8370
   3.300   0.3648   0.00589   0.00137   0.0013   0.2205   0.8444
   3.400   0.3756   0.00594   0.00142   0.0014   0.2111   0.8522
   3.500   0.3865   0.00600   0.00146   0.0014   0.2021   0.8591
   3.600   0.3972   0.00605   0.00150   0.0015   0.1936   0.8667
   3.700   0.4081   0.00612   0.00155   0.0016   0.1848   0.8734
   3.800   0.4189   0.00616   0.00159   0.0017   0.1780   0.8800
   4.000   0.4404   0.00630   0.00169   0.0019   0.1611   0.8926
   4.100   0.4509   0.00637   0.00174   0.0021   0.1526   0.8992
   4.200   0.4618   0.00642   0.00179   0.0022   0.1470   0.9052
   4.300   0.4724   0.00650   0.00184   0.0023   0.1387   0.9105
   4.400   0.4831   0.00655   0.00189   0.0025   0.1331   0.9162
   4.500   0.4936   0.00664   0.00195   0.0026   0.1252   0.9217
   4.600   0.5045   0.00670   0.00200   0.0027   0.1204   0.9262
   4.700   0.5149   0.00677   0.00206   0.0029   0.1147   0.9313
   4.800   0.5255   0.00684   0.00212   0.0030   0.1087   0.9363
   5.000   0.5465   0.00700   0.00224   0.0034   0.0976   0.9447
   5.100   0.5570   0.00706   0.00229   0.0035   0.0939   0.9491
   5.200   0.5676   0.00713   0.00235   0.0037   0.0897   0.9532
   5.300   0.5780   0.00723   0.00242   0.0038   0.0843   0.9566
   5.400   0.5886   0.00728   0.00248   0.0040   0.0817   0.9602
   5.500   0.5991   0.00736   0.00254   0.0042   0.0779   0.9637
   5.600   0.6095   0.00746   0.00261   0.0044   0.0731   0.9672
   5.700   0.6200   0.00752   0.00266   0.0045   0.0708   0.9703
   5.800   0.6312   0.00760   0.00273   0.0045   0.0677   0.9726
   6.000   0.6535   0.00777   0.00287   0.0045   0.0617   0.9777
   6.100   0.6642   0.00784   0.00293   0.0047   0.0597   0.9805
   6.200   0.6745   0.00793   0.00300   0.0048   0.0570   0.9830
   6.300   0.6870   0.00803   0.00308   0.0045   0.0537   0.9842
   6.400   0.6997   0.00810   0.00315   0.0042   0.0522   0.9854
   6.500   0.7122   0.00819   0.00322   0.0039   0.0500   0.9866
   6.600   0.7244   0.00830   0.00331   0.0036   0.0475   0.9878
   6.700   0.7368   0.00839   0.00338   0.0033   0.0457   0.9890
   6.800   0.7492   0.00846   0.00345   0.0030   0.0445   0.9902
   7.000   0.7739   0.00866   0.00362   0.0025   0.0411   0.9923
   7.100   0.7861   0.00876   0.00371   0.0022   0.0392   0.9932
   7.200   0.7986   0.00884   0.00379   0.0019   0.0384   0.9938
   7.300   0.8120   0.00893   0.00387   0.0014   0.0371   0.9941
   7.400   0.8252   0.00904   0.00396   0.0009   0.0357   0.9944
   7.500   0.8382   0.00916   0.00406   0.0004   0.0339   0.9948
   7.600   0.8514   0.00925   0.00415  -0.0001   0.0331   0.9951
   7.700   0.8646   0.00933   0.00423  -0.0005   0.0324   0.9955
   7.800   0.8776   0.00943   0.00432  -0.0010   0.0315   0.9959
   8.000   0.9034   0.00965   0.00452  -0.0019   0.0294   0.9967
   8.100   0.9162   0.00977   0.00463  -0.0023   0.0283   0.9972
   8.200   0.9292   0.00985   0.00471  -0.0027   0.0279   0.9976
   8.300   0.9420   0.00994   0.00481  -0.0031   0.0274   0.9980
   8.400   0.9548   0.01004   0.00490  -0.0035   0.0267   0.9984
   8.500   0.9675   0.01016   0.00500  -0.0039   0.0259   0.9988
   8.600   0.9801   0.01028   0.00512  -0.0043   0.0251   0.9992
   8.700   0.9926   0.01043   0.00526  -0.0047   0.0240   0.9995
   8.800   1.0053   0.01051   0.00535  -0.0051   0.0238   0.9998
   9.000   1.0260   0.01069   0.00553  -0.0048   0.0231   1.0000
   9.100   1.0345   0.01078   0.00562  -0.0043   0.0227   1.0000
   9.200   1.0429   0.01088   0.00572  -0.0038   0.0223   1.0000
   9.300   1.0514   0.01098   0.00582  -0.0033   0.0219   1.0000
   9.400   1.0598   0.01109   0.00593  -0.0027   0.0215   1.0000
   9.500   1.0681   0.01122   0.00605  -0.0022   0.0209   1.0000
   9.600   1.0764   0.01136   0.00619  -0.0017   0.0203   1.0000
   9.700   1.0851   0.01146   0.00630  -0.0012   0.0200   1.0000
   9.800   1.0941   0.01155   0.00639  -0.0008   0.0199   1.0000
  10.000   1.1120   0.01174   0.00660   0.0000   0.0195   1.0000
  10.100   1.1210   0.01185   0.00670   0.0004   0.0192   1.0000
  10.200   1.1300   0.01196   0.00682   0.0008   0.0189   1.0000
  10.300   1.1390   0.01207   0.00693   0.0012   0.0186   1.0000
  10.400   1.1479   0.01219   0.00705   0.0016   0.0183   1.0000
  10.500   1.1568   0.01232   0.00718   0.0020   0.0179   1.0000
  10.600   1.1657   0.01247   0.00732   0.0024   0.0175   1.0000
  10.700   1.1744   0.01264   0.00750   0.0028   0.0170   1.0000
  10.800   1.1834   0.01279   0.00766   0.0031   0.0167   1.0000
  11.000   1.2024   0.01301   0.00789   0.0037   0.0165   1.0000
  11.100   1.2119   0.01313   0.00802   0.0039   0.0164   1.0000
  11.200   1.2213   0.01325   0.00814   0.0042   0.0162   1.0000
  11.300   1.2308   0.01337   0.00828   0.0044   0.0160   1.0000
  11.400   1.2402   0.01350   0.00841   0.0047   0.0158   1.0000
  11.500   1.2495   0.01364   0.00855   0.0049   0.0156   1.0000
  11.600   1.2588   0.01378   0.00870   0.0052   0.0154   1.0000
  11.700   1.2681   0.01393   0.00885   0.0055   0.0152   1.0000
  11.800   1.2773   0.01408   0.00901   0.0058   0.0150   1.0000
  12.000   1.2953   0.01442   0.00936   0.0063   0.0145   1.0000
  12.100   1.3040   0.01462   0.00956   0.0067   0.0142   1.0000
  12.200   1.3124   0.01485   0.00981   0.0071   0.0139   1.0000
  12.300   1.3210   0.01505   0.01002   0.0074   0.0137   1.0000
  12.400   1.3303   0.01518   0.01017   0.0076   0.0137   1.0000
  12.500   1.3395   0.01532   0.01032   0.0079   0.0136   1.0000
  12.600   1.3487   0.01547   0.01047   0.0082   0.0135   1.0000
  12.700   1.3577   0.01562   0.01063   0.0084   0.0134   1.0000
  12.800   1.3667   0.01578   0.01080   0.0087   0.0133   1.0000
  13.000   1.3844   0.01610   0.01115   0.0093   0.0131   1.0000
  13.100   1.3932   0.01627   0.01132   0.0096   0.0130   1.0000
  13.200   1.4018   0.01644   0.01150   0.0099   0.0129   1.0000
  13.300   1.4104   0.01662   0.01169   0.0102   0.0127   1.0000
  13.400   1.4188   0.01680   0.01188   0.0106   0.0126   1.0000
  13.500   1.4272   0.01699   0.01208   0.0109   0.0124   1.0000
  13.600   1.4353   0.01718   0.01228   0.0113   0.0123   1.0000
  13.700   1.4434   0.01739   0.01249   0.0116   0.0121   1.0000
  13.800   1.4512   0.01761   0.01272   0.0121   0.0120   1.0000
  14.000   1.4659   0.01810   0.01324   0.0130   0.0116   1.0000
  14.100   1.4727   0.01839   0.01354   0.0135   0.0115   1.0000
  14.200   1.4789   0.01871   0.01390   0.0141   0.0113   1.0000
  14.300   1.4851   0.01902   0.01423   0.0147   0.0111   1.0000
  14.400   1.4927   0.01921   0.01444   0.0152   0.0111   1.0000
  14.500   1.5000   0.01942   0.01466   0.0156   0.0111   1.0000
  14.600   1.5071   0.01963   0.01488   0.0161   0.0110   1.0000
  14.700   1.5135   0.01984   0.01511   0.0167   0.0110   1.0000
  14.800   1.5196   0.02005   0.01533   0.0174   0.0109   1.0000
  15.000   1.5307   0.02051   0.01583   0.0189   0.0108   1.0000
  15.100   1.5361   0.02076   0.01610   0.0196   0.0108   1.0000
  15.200   1.5413   0.02102   0.01637   0.0203   0.0107   1.0000
  15.300   1.5463   0.02130   0.01667   0.0211   0.0107   1.0000
  15.400   1.5514   0.02157   0.01696   0.0218   0.0106   1.0000
  15.500   1.5564   0.02186   0.01727   0.0224   0.0105   1.0000
  15.600   1.5612   0.02217   0.01760   0.0231   0.0105   1.0000
  15.700   1.5657   0.02250   0.01795   0.0238   0.0104   1.0000
  15.800   1.5703   0.02283   0.01830   0.0244   0.0104   1.0000
  16.000   1.5789   0.02355   0.01906   0.0257   0.0102   1.0000
  16.100   1.5829   0.02394   0.01947   0.0263   0.0102   1.0000
  16.200   1.5868   0.02435   0.01990   0.0269   0.0101   1.0000
  16.300   1.5905   0.02478   0.02035   0.0274   0.0100   1.0000
  16.400   1.5941   0.02523   0.02082   0.0280   0.0100   1.0000
  16.500   1.5975   0.02570   0.02131   0.0285   0.0099   1.0000
  16.600   1.6005   0.02621   0.02185   0.0290   0.0098   1.0000
  16.700   1.6036   0.02674   0.02240   0.0294   0.0098   1.0000
  16.800   1.6062   0.02732   0.02300   0.0299   0.0097   1.0000
  17.000   1.6106   0.02858   0.02431   0.0307   0.0096   1.0000
  17.100   1.6123   0.02928   0.02504   0.0310   0.0095   1.0000
  17.200   1.6135   0.03006   0.02584   0.0313   0.0094   1.0000
  17.300   1.6146   0.03086   0.02668   0.0315   0.0094   1.0000
  17.400   1.6148   0.03176   0.02761   0.0317   0.0093   1.0000
  17.500   1.6145   0.03274   0.02864   0.0318   0.0092   1.0000
  17.600   1.6140   0.03379   0.02972   0.0319   0.0092   1.0000
  17.700   1.6124   0.03498   0.03096   0.0319   0.0091   1.0000
  17.800   1.6108   0.03622   0.03223   0.0317   0.0090   1.0000
  18.000   1.6041   0.03917   0.03528   0.0312   0.0089   1.0000
  18.100   1.6003   0.04078   0.03694   0.0307   0.0088   1.0000
  18.200   1.5981   0.04225   0.03846   0.0303   0.0088   1.0000
  18.300   1.5974   0.04355   0.03979   0.0299   0.0088   1.0000
  18.400   1.5963   0.04491   0.04119   0.0294   0.0088   1.0000
  18.500   1.5941   0.04643   0.04275   0.0288   0.0088   1.0000
  18.600   1.5912   0.04807   0.04443   0.0282   0.0088   1.0000
  18.700   1.5883   0.04975   0.04614   0.0275   0.0088   1.0000
  18.800   1.5848   0.05152   0.04796   0.0267   0.0088   1.0000
  19.000   1.5746   0.05559   0.05212   0.0249   0.0088   1.0000
  19.100   1.5692   0.05767   0.05425   0.0239   0.0087   1.0000
  19.200   1.5617   0.06009   0.05672   0.0228   0.0087   1.0000
  19.300   1.5543   0.06254   0.05922   0.0216   0.0087   1.0000
  19.400   1.5449   0.06532   0.06205   0.0202   0.0087   1.0000
  19.500   1.5353   0.06816   0.06495   0.0188   0.0087   1.0000
  19.600   1.5241   0.07127   0.06811   0.0173   0.0087   1.0000
  19.700   1.5103   0.07480   0.07171   0.0155   0.0087   1.0000
  19.800   1.4968   0.07833   0.07529   0.0137   0.0087   1.0000
