  
       XFOIL         Version 6.99
  
 Calculated polar for: NACA 0012                                       
  
 1 1 Reynolds number fixed          Mach number fixed         
  
 xtrf =   1.000 (top)        1.000 (bottom)  
 Mach =   0.000     Re =     2.900 e 6     Ncrit =   9.000
  
   alpha    CL        CD       CDp       CM     Top_Xtr  Bot_Xtr
  ------ -------- --------- --------- -------- -------- --------
 -20.000  -1.5761   0.06853   0.06536  -0.0195   1.0000   0.0083
 -19.900  -1.5856   0.06575   0.06252  -0.0209   1.0000   0.0083
 -19.800  -1.5944   0.06310   0.05982  -0.0222   1.0000   0.0083
 -19.700  -1.6021   0.06063   0.05731  -0.0233   1.0000   0.0083
 -19.600  -1.6098   0.05821   0.05483  -0.0245   1.0000   0.0083
 -19.500  -1.6158   0.05607   0.05265  -0.0254   1.0000   0.0083
 -19.400  -1.6216   0.05398   0.05051  -0.0263   1.0000   0.0084
 -19.300  -1.6263   0.05204   0.04853  -0.0272   1.0000   0.0084
 -19.200  -1.6304   0.05021   0.04667  -0.0279   1.0000   0.0084
 -19.000  -1.6370   0.04684   0.04322  -0.0293   1.0000   0.0084
 -18.900  -1.6398   0.04526   0.04160  -0.0298   1.0000   0.0085
 -18.800  -1.6415   0.04386   0.04016  -0.0303   1.0000   0.0085
 -18.700  -1.6430   0.04248   0.03875  -0.0307   1.0000   0.0085
 -18.600  -1.6443   0.04115   0.03738  -0.0311   1.0000   0.0085
 -18.500  -1.6448   0.03994   0.03614  -0.0314   1.0000   0.0086
 -18.400  -1.6453   0.03874   0.03491  -0.0317   1.0000   0.0086
 -18.300  -1.6455   0.03762   0.03375  -0.0319   1.0000   0.0086
 -18.200  -1.6450   0.03660   0.03270  -0.0320   1.0000   0.0086
 -18.000  -1.6436   0.03466   0.03070  -0.0322   1.0000   0.0087
 -17.900  -1.6426   0.03374   0.02974  -0.0322   1.0000   0.0087
 -17.800  -1.6410   0.03291   0.02889  -0.0321   1.0000   0.0087
 -17.700  -1.6392   0.03213   0.02808  -0.0320   1.0000   0.0087
 -17.600  -1.6373   0.03137   0.02729  -0.0319   1.0000   0.0087
 -17.500  -1.6353   0.03064   0.02654  -0.0317   1.0000   0.0088
 -17.400  -1.6328   0.02997   0.02585  -0.0315   1.0000   0.0088
 -17.300  -1.6302   0.02932   0.02516  -0.0313   1.0000   0.0088
 -17.200  -1.6273   0.02872   0.02454  -0.0310   1.0000   0.0088
 -17.000  -1.6214   0.02757   0.02334  -0.0303   1.0000   0.0088
 -16.900  -1.6214   0.02679   0.02252  -0.0298   1.0000   0.0089
 -16.800  -1.6205   0.02609   0.02179  -0.0292   1.0000   0.0090
 -16.700  -1.6189   0.02547   0.02113  -0.0286   1.0000   0.0091
 -16.600  -1.6173   0.02487   0.02050  -0.0279   1.0000   0.0092
 -16.500  -1.6151   0.02434   0.01994  -0.0273   1.0000   0.0093
 -16.400  -1.6121   0.02386   0.01944  -0.0266   1.0000   0.0094
 -16.300  -1.6091   0.02340   0.01896  -0.0260   1.0000   0.0095
 -16.200  -1.6056   0.02299   0.01853  -0.0253   1.0000   0.0096
 -16.000  -1.5978   0.02224   0.01774  -0.0239   1.0000   0.0098
 -15.900  -1.5936   0.02189   0.01738  -0.0232   1.0000   0.0098
 -15.800  -1.5891   0.02157   0.01704  -0.0225   1.0000   0.0099
 -15.700  -1.5845   0.02126   0.01671  -0.0218   1.0000   0.0100
 -15.600  -1.5797   0.02097   0.01640  -0.0210   1.0000   0.0100
 -15.500  -1.5749   0.02069   0.01611  -0.0203   1.0000   0.0101
 -15.400  -1.5698   0.02042   0.01582  -0.0195   1.0000   0.0102
 -15.300  -1.5647   0.02016   0.01555  -0.0188   1.0000   0.0103
 -15.200  -1.5595   0.01992   0.01529  -0.0180   1.0000   0.0103
 -15.000  -1.5483   0.01946   0.01481  -0.0165   1.0000   0.0105
 -14.900  -1.5422   0.01925   0.01458  -0.0159   1.0000   0.0106
 -14.800  -1.5352   0.01903   0.01435  -0.0153   1.0000   0.0106
 -14.700  -1.5282   0.01882   0.01412  -0.0148   1.0000   0.0107
 -14.600  -1.5208   0.01861   0.01390  -0.0144   1.0000   0.0108
 -14.500  -1.5133   0.01841   0.01368  -0.0139   1.0000   0.0108
 -14.400  -1.5056   0.01821   0.01347  -0.0135   1.0000   0.0109
 -14.300  -1.4977   0.01802   0.01327  -0.0131   1.0000   0.0109
 -14.200  -1.4898   0.01783   0.01307  -0.0127   1.0000   0.0110
 -14.000  -1.4735   0.01747   0.01268  -0.0120   1.0000   0.0111
 -13.900  -1.4652   0.01730   0.01250  -0.0117   1.0000   0.0111
 -13.800  -1.4567   0.01713   0.01232  -0.0113   1.0000   0.0111
 -13.700  -1.4494   0.01686   0.01203  -0.0108   1.0000   0.0113
 -13.600  -1.4419   0.01660   0.01175  -0.0104   1.0000   0.0115
 -13.500  -1.4341   0.01637   0.01150  -0.0100   1.0000   0.0118
 -13.400  -1.4259   0.01615   0.01128  -0.0096   1.0000   0.0120
 -13.300  -1.4176   0.01596   0.01108  -0.0092   1.0000   0.0121
 -13.200  -1.4090   0.01577   0.01089  -0.0089   1.0000   0.0123
 -13.000  -1.3915   0.01543   0.01053  -0.0083   1.0000   0.0126
 -12.900  -1.3826   0.01526   0.01037  -0.0080   1.0000   0.0128
 -12.800  -1.3736   0.01510   0.01020  -0.0077   1.0000   0.0129
 -12.700  -1.3646   0.01495   0.01004  -0.0075   1.0000   0.0131
 -12.600  -1.3555   0.01480   0.00988  -0.0072   1.0000   0.0132
 -12.500  -1.3463   0.01465   0.00973  -0.0069   1.0000   0.0133
 -12.400  -1.3370   0.01451   0.00958  -0.0067   1.0000   0.0134
 -12.300  -1.3277   0.01438   0.00943  -0.0065   1.0000   0.0135
 -12.200  -1.3183   0.01424   0.00929  -0.0062   1.0000   0.0136
 -12.000  -1.2994   0.01399   0.00902  -0.0058   1.0000   0.0137
 -11.900  -1.2899   0.01386   0.00888  -0.0055   1.0000   0.0138
 -11.800  -1.2813   0.01365   0.00866  -0.0052   1.0000   0.0141
 -11.700  -1.2723   0.01347   0.00847  -0.0048   1.0000   0.0144
 -11.600  -1.2632   0.01331   0.00830  -0.0046   1.0000   0.0147
 -11.500  -1.2540   0.01316   0.00815  -0.0043   1.0000   0.0150
 -11.400  -1.2447   0.01301   0.00801  -0.0040   1.0000   0.0152
 -11.300  -1.2353   0.01288   0.00787  -0.0037   1.0000   0.0154
 -11.200  -1.2260   0.01275   0.00774  -0.0035   1.0000   0.0157
 -11.000  -1.2072   0.01251   0.00749  -0.0029   1.0000   0.0161
 -10.900  -1.1977   0.01239   0.00738  -0.0026   1.0000   0.0162
 -10.800  -1.1883   0.01228   0.00726  -0.0023   1.0000   0.0164
 -10.700  -1.1790   0.01218   0.00715  -0.0020   1.0000   0.0165
 -10.600  -1.1696   0.01208   0.00705  -0.0017   1.0000   0.0166
 -10.500  -1.1603   0.01199   0.00695  -0.0014   1.0000   0.0167
 -10.400  -1.1518   0.01184   0.00679  -0.0009   1.0000   0.0172
 -10.300  -1.1431   0.01169   0.00665  -0.0005   1.0000   0.0177
 -10.200  -1.1344   0.01157   0.00652  -0.0001   1.0000   0.0181
 -10.000  -1.1167   0.01134   0.00630   0.0008   1.0000   0.0188
  -9.900  -1.1079   0.01124   0.00620   0.0012   1.0000   0.0191
  -9.800  -1.0992   0.01114   0.00610   0.0017   1.0000   0.0194
  -9.700  -1.0904   0.01104   0.00600   0.0021   1.0000   0.0196
  -9.600  -1.0816   0.01096   0.00591   0.0026   1.0000   0.0198
  -9.500  -1.0729   0.01087   0.00582   0.0031   1.0000   0.0200
  -9.400  -1.0642   0.01080   0.00574   0.0036   1.0000   0.0201
  -9.300  -1.0560   0.01067   0.00562   0.0041   1.0000   0.0207
  -9.200  -1.0478   0.01056   0.00550   0.0047   1.0000   0.0213
  -9.000  -1.0238   0.01032   0.00528   0.0042   0.9995   0.0224
  -8.900  -1.0113   0.01022   0.00518   0.0038   0.9992   0.0229
  -8.800  -0.9987   0.01012   0.00508   0.0035   0.9989   0.0233
  -8.700  -0.9860   0.01003   0.00499   0.0031   0.9986   0.0237
  -8.600  -0.9733   0.00994   0.00490   0.0027   0.9982   0.0239
  -8.500  -0.9607   0.00983   0.00479   0.0023   0.9978   0.0247
  -8.400  -0.9481   0.00970   0.00468   0.0020   0.9974   0.0257
  -8.300  -0.9354   0.00959   0.00458   0.0016   0.9970   0.0266
  -8.200  -0.9227   0.00949   0.00449   0.0012   0.9966   0.0273
  -8.000  -0.8968   0.00932   0.00432   0.0003   0.9958   0.0283
  -7.900  -0.8839   0.00922   0.00423  -0.0001   0.9954   0.0292
  -7.800  -0.8710   0.00911   0.00412  -0.0005   0.9951   0.0305
  -7.700  -0.8580   0.00900   0.00403  -0.0010   0.9947   0.0315
  -7.600  -0.8449   0.00891   0.00395  -0.0015   0.9944   0.0324
  -7.500  -0.8317   0.00883   0.00387  -0.0019   0.9941   0.0331
  -7.400  -0.8184   0.00875   0.00379  -0.0024   0.9939   0.0339
  -7.300  -0.8062   0.00864   0.00370  -0.0027   0.9932   0.0357
  -7.200  -0.7944   0.00854   0.00361  -0.0029   0.9921   0.0371
  -7.000  -0.7703   0.00838   0.00347  -0.0033   0.9897   0.0391
  -6.900  -0.7583   0.00829   0.00339  -0.0035   0.9884   0.0408
  -6.800  -0.7463   0.00819   0.00330  -0.0037   0.9870   0.0427
  -6.700  -0.7340   0.00810   0.00323  -0.0040   0.9857   0.0443
  -6.600  -0.7216   0.00803   0.00316  -0.0043   0.9845   0.0456
  -6.500  -0.7092   0.00796   0.00310  -0.0046   0.9832   0.0471
  -6.400  -0.6985   0.00786   0.00302  -0.0044   0.9809   0.0496
  -6.300  -0.6881   0.00778   0.00295  -0.0043   0.9782   0.0516
  -6.200  -0.6770   0.00771   0.00289  -0.0042   0.9756   0.0533
  -6.000  -0.6552   0.00754   0.00275  -0.0041   0.9705   0.0588
  -5.900  -0.6446   0.00747   0.00269  -0.0040   0.9676   0.0611
  -5.800  -0.6339   0.00741   0.00264  -0.0038   0.9642   0.0626
  -5.700  -0.6235   0.00733   0.00257  -0.0037   0.9606   0.0662
  -5.600  -0.6132   0.00725   0.00250  -0.0034   0.9570   0.0696
  -5.500  -0.6025   0.00719   0.00245  -0.0033   0.9537   0.0720
  -5.400  -0.5919   0.00712   0.00239  -0.0032   0.9497   0.0758
  -5.300  -0.5815   0.00703   0.00232  -0.0030   0.9453   0.0801
  -5.200  -0.5711   0.00698   0.00226  -0.0028   0.9409   0.0831
  -5.000  -0.5496   0.00683   0.00215  -0.0026   0.9322   0.0919
  -4.900  -0.5390   0.00678   0.00210  -0.0024   0.9271   0.0953
  -4.800  -0.5284   0.00671   0.00204  -0.0023   0.9224   0.1010
  -4.700  -0.5177   0.00663   0.00198  -0.0022   0.9172   0.1066
  -4.600  -0.5069   0.00658   0.00193  -0.0021   0.9115   0.1109
  -4.500  -0.4963   0.00651   0.00187  -0.0019   0.9062   0.1176
  -4.400  -0.4854   0.00645   0.00183  -0.0018   0.9005   0.1221
  -4.300  -0.4748   0.00639   0.00177  -0.0017   0.8940   0.1293
  -4.200  -0.4640   0.00633   0.00172  -0.0016   0.8881   0.1355
  -4.000  -0.4425   0.00621   0.00162  -0.0014   0.8745   0.1495
  -3.900  -0.4314   0.00616   0.00158  -0.0013   0.8680   0.1561
  -3.800  -0.4207   0.00610   0.00153  -0.0012   0.8607   0.1638
  -3.700  -0.4098   0.00604   0.00149  -0.0012   0.8539   0.1724
  -3.600  -0.3990   0.00599   0.00145  -0.0011   0.8459   0.1801
  -3.500  -0.3881   0.00594   0.00140  -0.0010   0.8385   0.1877
  -3.400  -0.3771   0.00589   0.00137  -0.0009   0.8305   0.1959
  -3.300  -0.3663   0.00584   0.00132  -0.0009   0.8228   0.2051
  -3.200  -0.3553   0.00580   0.00129  -0.0008   0.8144   0.2126
  -3.000  -0.3334   0.00571   0.00122  -0.0007   0.7980   0.2306
  -2.900  -0.3225   0.00567   0.00118  -0.0006   0.7893   0.2408
  -2.800  -0.3115   0.00562   0.00115  -0.0006   0.7810   0.2495
  -2.700  -0.3005   0.00559   0.00112  -0.0005   0.7721   0.2584
  -2.600  -0.2895   0.00554   0.00109  -0.0005   0.7632   0.2688
  -2.500  -0.2784   0.00552   0.00107  -0.0005   0.7544   0.2766
  -2.400  -0.2674   0.00548   0.00104  -0.0004   0.7446   0.2867
  -2.300  -0.2563   0.00546   0.00101  -0.0004   0.7359   0.2953
  -2.200  -0.2454   0.00542   0.00099  -0.0003   0.7259   0.3060
  -1.900  -0.2121   0.00533   0.00092  -0.0003   0.6990   0.3351
  -1.800  -0.2010   0.00532   0.00090  -0.0002   0.6895   0.3438
  -1.700  -0.1899   0.00529   0.00088  -0.0002   0.6800   0.3546
  -1.600  -0.1787   0.00527   0.00087  -0.0002   0.6706   0.3634
  -1.500  -0.1676   0.00525   0.00085  -0.0002   0.6609   0.3733
  -1.400  -0.1565   0.00522   0.00084  -0.0001   0.6523   0.3833
  -1.300  -0.1453   0.00522   0.00082  -0.0001   0.6419   0.3930
  -1.200  -0.1342   0.00519   0.00081  -0.0001   0.6327   0.4027
  -1.000  -0.1118   0.00517   0.00079  -0.0001   0.6136   0.4220
  -0.900  -0.1007   0.00515   0.00078  -0.0001   0.6041   0.4315
  -0.800  -0.0895   0.00515   0.00077  -0.0001   0.5945   0.4412
  -0.700  -0.0783   0.00513   0.00076  -0.0001   0.5852   0.4511
  -0.600  -0.0672   0.00513   0.00076  -0.0000   0.5748   0.4601
  -0.500  -0.0559   0.00512   0.00075  -0.0000   0.5662   0.4707
  -0.400  -0.0448   0.00512   0.00075  -0.0000   0.5561   0.4801
  -0.300  -0.0335   0.00511   0.00074  -0.0000   0.5470   0.4893
  -0.200  -0.0224   0.00510   0.00074  -0.0000   0.5379   0.5000
   0.000   0.0000   0.00510   0.00074  -0.0000   0.5187   0.5189
   0.100   0.0112   0.00511   0.00074   0.0000   0.5082   0.5276
   0.200   0.0224   0.00510   0.00074   0.0000   0.4998   0.5376
   0.300   0.0335   0.00511   0.00074   0.0000   0.4892   0.5469
   0.400   0.0448   0.00512   0.00075   0.0000   0.4796   0.5562
   0.500   0.0560   0.00512   0.00075   0.0000   0.4705   0.5662
   0.600   0.0672   0.00513   0.00076   0.0000   0.4603   0.5756
   0.700   0.0784   0.00513   0.00076   0.0001   0.4515   0.5854
   0.800   0.0895   0.00514   0.00077   0.0001   0.4413   0.5950
   1.000   0.1118   0.00517   0.00079   0.0001   0.4218   0.6137
   1.100   0.1231   0.00518   0.00080   0.0001   0.4125   0.6227
   1.200   0.1342   0.00519   0.00081   0.0001   0.4030   0.6334
   1.300   0.1454   0.00522   0.00082   0.0001   0.3930   0.6416
   1.400   0.1565   0.00522   0.00084   0.0001   0.3834   0.6519
   1.500   0.1676   0.00525   0.00085   0.0002   0.3733   0.6614
   1.600   0.1788   0.00527   0.00087   0.0002   0.3641   0.6706
   1.700   0.1899   0.00529   0.00088   0.0002   0.3548   0.6800
   1.800   0.2010   0.00532   0.00090   0.0002   0.3441   0.6893
   2.100   0.2343   0.00538   0.00096   0.0003   0.3159   0.7176
   2.200   0.2454   0.00542   0.00099   0.0003   0.3060   0.7263
   2.300   0.2564   0.00545   0.00101   0.0004   0.2961   0.7362
   2.400   0.2675   0.00548   0.00104   0.0004   0.2873   0.7446
   2.500   0.2784   0.00553   0.00107   0.0005   0.2764   0.7540
   2.600   0.2896   0.00554   0.00109   0.0005   0.2692   0.7626
   2.700   0.3005   0.00559   0.00112   0.0005   0.2583   0.7718
   2.800   0.3115   0.00562   0.00115   0.0006   0.2499   0.7810
   3.000   0.3333   0.00572   0.00122   0.0007   0.2300   0.7980
   3.100   0.3445   0.00575   0.00125   0.0007   0.2229   0.8064
   3.200   0.3552   0.00580   0.00129   0.0008   0.2129   0.8149
   3.300   0.3664   0.00583   0.00132   0.0009   0.2061   0.8228
   3.400   0.3771   0.00589   0.00137   0.0009   0.1959   0.8306
   3.500   0.3881   0.00594   0.00140   0.0010   0.1879   0.8387
   3.600   0.3989   0.00599   0.00145   0.0011   0.1800   0.8461
   3.700   0.4098   0.00604   0.00149   0.0012   0.1721   0.8538
   3.800   0.4207   0.00610   0.00153   0.0012   0.1647   0.8605
   4.000   0.4424   0.00621   0.00162   0.0014   0.1495   0.8746
   4.100   0.4531   0.00627   0.00167   0.0015   0.1427   0.8815
   4.200   0.4640   0.00633   0.00172   0.0016   0.1355   0.8879
   4.300   0.4748   0.00639   0.00177   0.0017   0.1293   0.8940
   4.400   0.4854   0.00645   0.00183   0.0018   0.1222   0.9004
   4.500   0.4963   0.00651   0.00187   0.0019   0.1176   0.9060
   4.600   0.5069   0.00658   0.00193   0.0021   0.1109   0.9115
   4.700   0.5176   0.00663   0.00198   0.0022   0.1064   0.9173
   4.800   0.5285   0.00670   0.00204   0.0023   0.1018   0.9224
   5.000   0.5496   0.00683   0.00215   0.0026   0.0919   0.9322
   5.100   0.5602   0.00691   0.00221   0.0027   0.0872   0.9370
   5.200   0.5711   0.00698   0.00226   0.0028   0.0831   0.9409
   5.300   0.5815   0.00704   0.00232   0.0030   0.0800   0.9453
   5.400   0.5918   0.00712   0.00239   0.0032   0.0757   0.9498
   5.500   0.6025   0.00719   0.00245   0.0033   0.0720   0.9537
   5.600   0.6132   0.00725   0.00250   0.0034   0.0694   0.9570
   5.700   0.6235   0.00733   0.00257   0.0037   0.0662   0.9607
   5.800   0.6339   0.00741   0.00264   0.0038   0.0626   0.9642
   6.000   0.6552   0.00754   0.00275   0.0041   0.0587   0.9705
   6.100   0.6660   0.00764   0.00283   0.0042   0.0558   0.9730
   6.200   0.6770   0.00771   0.00289   0.0042   0.0533   0.9757
   6.300   0.6881   0.00778   0.00295   0.0043   0.0517   0.9783
   6.400   0.6985   0.00786   0.00302   0.0044   0.0497   0.9810
   6.500   0.7092   0.00796   0.00310   0.0045   0.0471   0.9832
   6.600   0.7216   0.00803   0.00316   0.0043   0.0455   0.9845
   6.700   0.7341   0.00810   0.00323   0.0040   0.0443   0.9858
   6.800   0.7464   0.00819   0.00330   0.0037   0.0427   0.9870
   7.000   0.7703   0.00838   0.00347   0.0033   0.0391   0.9897
   7.100   0.7825   0.00845   0.00354   0.0031   0.0383   0.9909
   7.200   0.7945   0.00854   0.00361   0.0029   0.0371   0.9921
   7.300   0.8063   0.00864   0.00370   0.0027   0.0356   0.9932
   7.400   0.8186   0.00875   0.00379   0.0024   0.0339   0.9939
   7.500   0.8319   0.00883   0.00387   0.0019   0.0331   0.9941
   7.600   0.8451   0.00891   0.00395   0.0014   0.0324   0.9944
   7.700   0.8582   0.00900   0.00403   0.0010   0.0315   0.9947
   7.800   0.8712   0.00911   0.00412   0.0005   0.0304   0.9951
   8.000   0.8969   0.00932   0.00432  -0.0003   0.0283   0.9958
   8.100   0.9099   0.00940   0.00440  -0.0008   0.0279   0.9962
   8.200   0.9228   0.00949   0.00449  -0.0012   0.0273   0.9966
   8.300   0.9356   0.00959   0.00458  -0.0016   0.0266   0.9970
   8.400   0.9483   0.00970   0.00468  -0.0020   0.0258   0.9974
   8.500   0.9608   0.00983   0.00479  -0.0024   0.0247   0.9978
   8.600   0.9734   0.00994   0.00490  -0.0027   0.0239   0.9982
   8.700   0.9862   0.01003   0.00499  -0.0031   0.0237   0.9986
   8.800   0.9988   0.01012   0.00508  -0.0035   0.0233   0.9989
   9.000   1.0239   0.01032   0.00528  -0.0042   0.0224   0.9996
   9.100   1.0364   0.01044   0.00539  -0.0046   0.0218   0.9998
   9.200   1.0478   0.01056   0.00550  -0.0047   0.0213   1.0000
   9.300   1.0560   0.01067   0.00561  -0.0041   0.0207   1.0000
   9.400   1.0641   0.01080   0.00574  -0.0035   0.0201   1.0000
   9.500   1.0729   0.01087   0.00582  -0.0031   0.0200   1.0000
   9.600   1.0816   0.01096   0.00591  -0.0026   0.0198   1.0000
   9.700   1.0903   0.01104   0.00600  -0.0021   0.0196   1.0000
   9.800   1.0991   0.01114   0.00609  -0.0017   0.0194   1.0000
  10.000   1.1167   0.01134   0.00630  -0.0008   0.0188   1.0000
  10.100   1.1255   0.01145   0.00641  -0.0004   0.0184   1.0000
  10.200   1.1343   0.01157   0.00652   0.0001   0.0181   1.0000
  10.300   1.1431   0.01169   0.00665   0.0005   0.0176   1.0000
  10.400   1.1517   0.01184   0.00679   0.0009   0.0171   1.0000
  10.500   1.1603   0.01199   0.00695   0.0014   0.0167   1.0000
  10.600   1.1697   0.01208   0.00704   0.0017   0.0166   1.0000
  10.700   1.1790   0.01218   0.00715   0.0020   0.0165   1.0000
  10.800   1.1884   0.01228   0.00726   0.0023   0.0164   1.0000
  11.000   1.2072   0.01251   0.00749   0.0029   0.0161   1.0000
  11.100   1.2166   0.01263   0.00761   0.0032   0.0159   1.0000
  11.200   1.2260   0.01275   0.00774   0.0034   0.0157   1.0000
  11.300   1.2354   0.01288   0.00787   0.0037   0.0154   1.0000
  11.400   1.2448   0.01301   0.00801   0.0040   0.0152   1.0000
  11.500   1.2541   0.01315   0.00815   0.0043   0.0150   1.0000
  11.600   1.2633   0.01331   0.00830   0.0045   0.0147   1.0000
  11.700   1.2724   0.01347   0.00847   0.0048   0.0144   1.0000
  11.800   1.2814   0.01365   0.00866   0.0051   0.0141   1.0000
  12.000   1.2995   0.01399   0.00902   0.0057   0.0137   1.0000
  12.100   1.3090   0.01411   0.00915   0.0060   0.0137   1.0000
  12.200   1.3184   0.01424   0.00929   0.0062   0.0136   1.0000
  12.300   1.3278   0.01438   0.00943   0.0064   0.0135   1.0000
  12.400   1.3371   0.01451   0.00958   0.0067   0.0134   1.0000
  12.500   1.3464   0.01465   0.00973   0.0069   0.0133   1.0000
  12.600   1.3556   0.01480   0.00988   0.0072   0.0132   1.0000
  12.700   1.3647   0.01495   0.01004   0.0074   0.0130   1.0000
  12.800   1.3738   0.01510   0.01020   0.0077   0.0129   1.0000
  13.000   1.3917   0.01543   0.01053   0.0083   0.0126   1.0000
  13.100   1.4005   0.01560   0.01071   0.0086   0.0125   1.0000
  13.200   1.4092   0.01577   0.01089   0.0089   0.0123   1.0000
  13.300   1.4177   0.01596   0.01108   0.0092   0.0121   1.0000
  13.400   1.4261   0.01615   0.01128   0.0095   0.0120   1.0000
  13.500   1.4343   0.01637   0.01151   0.0099   0.0117   1.0000
  13.600   1.4421   0.01660   0.01175   0.0103   0.0115   1.0000
  13.700   1.4496   0.01687   0.01203   0.0108   0.0113   1.0000
  13.800   1.4569   0.01713   0.01232   0.0113   0.0111   1.0000
  14.000   1.4737   0.01747   0.01268   0.0120   0.0111   1.0000
  14.100   1.4820   0.01765   0.01287   0.0123   0.0110   1.0000
  14.200   1.4901   0.01783   0.01307   0.0127   0.0110   1.0000
  14.300   1.4981   0.01801   0.01326   0.0131   0.0109   1.0000
  14.400   1.5059   0.01821   0.01347   0.0135   0.0109   1.0000
  14.500   1.5136   0.01841   0.01368   0.0139   0.0108   1.0000
  14.600   1.5212   0.01861   0.01390   0.0143   0.0108   1.0000
  14.700   1.5285   0.01882   0.01412   0.0148   0.0107   1.0000
  14.800   1.5357   0.01903   0.01434   0.0153   0.0106   1.0000
  15.000   1.5489   0.01946   0.01481   0.0164   0.0105   1.0000
  15.100   1.5546   0.01969   0.01504   0.0171   0.0104   1.0000
  15.200   1.5601   0.01992   0.01529   0.0179   0.0103   1.0000
  15.300   1.5653   0.02017   0.01555   0.0187   0.0103   1.0000
  15.400   1.5705   0.02042   0.01582   0.0194   0.0102   1.0000
  15.500   1.5756   0.02068   0.01610   0.0202   0.0101   1.0000
  15.600   1.5804   0.02096   0.01640   0.0209   0.0100   1.0000
  15.700   1.5852   0.02126   0.01671   0.0216   0.0100   1.0000
  15.800   1.5899   0.02156   0.01703   0.0223   0.0099   1.0000
  16.000   1.5986   0.02223   0.01773   0.0238   0.0097   1.0000
  16.100   1.6027   0.02260   0.01811   0.0244   0.0097   1.0000
  16.200   1.6065   0.02298   0.01852   0.0251   0.0096   1.0000
  16.300   1.6099   0.02340   0.01896   0.0258   0.0095   1.0000
  16.400   1.6131   0.02385   0.01943   0.0265   0.0094   1.0000
  16.500   1.6159   0.02434   0.01994   0.0271   0.0093   1.0000
  16.600   1.6179   0.02489   0.02052   0.0278   0.0092   1.0000
  16.700   1.6201   0.02545   0.02111   0.0284   0.0091   1.0000
  16.800   1.6214   0.02609   0.02179   0.0290   0.0090   1.0000
  17.000   1.6226   0.02755   0.02332   0.0301   0.0088   1.0000
  17.100   1.6257   0.02811   0.02390   0.0305   0.0088   1.0000
  17.200   1.6288   0.02867   0.02449   0.0308   0.0088   1.0000
  17.300   1.6317   0.02929   0.02513   0.0311   0.0088   1.0000
  17.400   1.6343   0.02993   0.02580   0.0313   0.0088   1.0000
  17.500   1.6368   0.03060   0.02650   0.0315   0.0088   1.0000
  17.600   1.6389   0.03132   0.02724   0.0317   0.0087   1.0000
  17.700   1.6408   0.03208   0.02803   0.0318   0.0087   1.0000
  17.800   1.6425   0.03288   0.02886   0.0319   0.0087   1.0000
  18.000   1.6458   0.03456   0.03059   0.0320   0.0087   1.0000
  18.100   1.6464   0.03553   0.03160   0.0319   0.0086   1.0000
  18.200   1.6470   0.03653   0.03262   0.0318   0.0086   1.0000
  18.300   1.6474   0.03756   0.03369   0.0317   0.0086   1.0000
  18.400   1.6476   0.03864   0.03480   0.0315   0.0086   1.0000
  18.500   1.6474   0.03980   0.03599   0.0312   0.0086   1.0000
  18.600   1.6467   0.04103   0.03726   0.0309   0.0085   1.0000
  18.700   1.6457   0.04233   0.03860   0.0305   0.0085   1.0000
  18.800   1.6440   0.04373   0.04003   0.0301   0.0085   1.0000
  19.000   1.6398   0.04669   0.04306   0.0290   0.0084   1.0000
  19.100   1.6375   0.04823   0.04464   0.0284   0.0084   1.0000
  19.200   1.6337   0.04999   0.04644   0.0277   0.0084   1.0000
  19.300   1.6298   0.05181   0.04829   0.0270   0.0084   1.0000
  19.400   1.6246   0.05380   0.05034   0.0261   0.0084   1.0000
  19.500   1.6191   0.05587   0.05244   0.0252   0.0083   1.0000
  19.600   1.6129   0.05803   0.05466   0.0242   0.0083   1.0000
  19.700   1.6056   0.06041   0.05708   0.0231   0.0083   1.0000
  19.800   1.5985   0.06278   0.05949   0.0220   0.0083   1.0000
