  
       XFOIL         Version 6.99
  
 Calculated polar for: NACA 0012                                       
  
 1 1 Reynolds number fixed          Mach number fixed         
  
 xtrf =   1.000 (top)        1.000 (bottom)  
 Mach =   0.000     Re =     0.420 e 6     Ncrit =   9.000
  
   alpha    CL        CD       CDp       CM     Top_Xtr  Bot_Xtr
  ------ -------- --------- --------- -------- -------- --------
 -20.000  -0.5462   0.20270   0.20024   0.0301   1.0000   0.0251
 -19.900  -0.5442   0.20180   0.19934   0.0297   1.0000   0.0254
 -19.800  -0.5425   0.20085   0.19839   0.0292   1.0000   0.0258
 -19.700  -0.5409   0.19984   0.19738   0.0287   1.0000   0.0261
 -19.600  -0.5396   0.19878   0.19631   0.0282   1.0000   0.0265
 -19.500  -0.5385   0.19762   0.19515   0.0277   1.0000   0.0270
 -19.400  -0.5399   0.19591   0.19343   0.0266   1.0000   0.0279
 -19.300  -0.5512   0.19335   0.19088   0.0240   1.0000   0.0283
 -19.200  -0.5539   0.19177   0.18930   0.0229   1.0000   0.0284
 -19.000  -0.5458   0.18953   0.18705   0.0230   1.0000   0.0286
 -18.900  -0.5415   0.18878   0.18630   0.0230   1.0000   0.0287
 -18.800  -0.5379   0.18806   0.18558   0.0230   1.0000   0.0289
 -18.700  -0.5349   0.18732   0.18483   0.0228   1.0000   0.0290
 -18.600  -0.5322   0.18656   0.18407   0.0225   1.0000   0.0292
 -18.500  -0.5298   0.18577   0.18327   0.0222   1.0000   0.0294
 -18.400  -0.5277   0.18493   0.18243   0.0219   1.0000   0.0297
 -18.300  -0.5258   0.18405   0.18155   0.0215   1.0000   0.0299
 -18.200  -0.5241   0.18313   0.18063   0.0211   1.0000   0.0303
 -18.000  -0.5213   0.18114   0.17863   0.0202   1.0000   0.0311
 -17.900  -0.5205   0.18000   0.17749   0.0196   1.0000   0.0318
 -16.900  -0.8820   0.14532   0.14256   0.0199   1.0000   0.0239
 -16.800  -0.8631   0.14886   0.14613   0.0218   1.0000   0.0241
 -16.700  -0.8587   0.14844   0.14572   0.0216   1.0000   0.0243
 -16.600  -0.8566   0.14730   0.14458   0.0210   1.0000   0.0244
 -16.500  -0.8535   0.14640   0.14368   0.0205   1.0000   0.0245
 -16.400  -0.8503   0.14553   0.14282   0.0200   1.0000   0.0247
 -16.300  -0.8465   0.14476   0.14205   0.0196   1.0000   0.0248
 -16.200  -0.8438   0.14371   0.14101   0.0190   1.0000   0.0249
 -16.000  -1.1294   0.07657   0.07269  -0.0222   1.0000   0.0222
 -15.900  -1.1376   0.07377   0.06981  -0.0238   1.0000   0.0222
 -15.800  -1.1448   0.07118   0.06715  -0.0253   1.0000   0.0222
 -15.700  -1.1515   0.06872   0.06462  -0.0267   1.0000   0.0223
 -15.600  -1.1578   0.06637   0.06220  -0.0280   1.0000   0.0223
 -15.500  -1.1632   0.06418   0.05993  -0.0292   1.0000   0.0224
 -15.400  -1.1684   0.06207   0.05774  -0.0302   1.0000   0.0224
 -15.300  -1.1731   0.06007   0.05568  -0.0312   1.0000   0.0225
 -15.200  -1.1776   0.05815   0.05368  -0.0321   1.0000   0.0225
 -15.000  -1.1850   0.05463   0.05001  -0.0336   1.0000   0.0227
 -14.900  -1.1883   0.05297   0.04829  -0.0342   1.0000   0.0228
 -14.800  -1.1912   0.05140   0.04664  -0.0347   1.0000   0.0229
 -14.700  -1.1939   0.04991   0.04507  -0.0352   1.0000   0.0230
 -14.600  -1.1962   0.04849   0.04358  -0.0355   1.0000   0.0231
 -14.500  -1.1982   0.04714   0.04216  -0.0358   1.0000   0.0232
 -14.400  -1.1999   0.04587   0.04081  -0.0360   1.0000   0.0233
 -14.300  -1.2013   0.04465   0.03952  -0.0361   1.0000   0.0234
 -14.200  -1.2024   0.04351   0.03830  -0.0361   1.0000   0.0235
 -14.000  -1.2036   0.04143   0.03607  -0.0359   1.0000   0.0237
 -13.900  -1.2039   0.04049   0.03505  -0.0357   1.0000   0.0238
 -13.800  -1.2038   0.03963   0.03410  -0.0355   1.0000   0.0239
 -13.700  -1.2046   0.03855   0.03295  -0.0351   1.0000   0.0241
 -13.600  -1.2051   0.03735   0.03172  -0.0345   1.0000   0.0243
 -13.500  -1.2038   0.03647   0.03081  -0.0341   1.0000   0.0245
 -13.400  -1.2018   0.03572   0.03005  -0.0337   1.0000   0.0247
 -13.300  -1.1993   0.03509   0.02940  -0.0332   1.0000   0.0249
 -13.200  -1.1966   0.03448   0.02878  -0.0328   1.0000   0.0251
 -13.000  -1.1908   0.03338   0.02763  -0.0317   1.0000   0.0255
 -12.900  -1.1877   0.03285   0.02706  -0.0312   1.0000   0.0257
 -12.800  -1.1846   0.03234   0.02652  -0.0306   1.0000   0.0259
 -12.700  -1.1815   0.03182   0.02596  -0.0299   1.0000   0.0262
 -12.600  -1.1783   0.03132   0.02542  -0.0293   1.0000   0.0264
 -12.500  -1.1750   0.03083   0.02488  -0.0285   1.0000   0.0267
 -12.400  -1.1716   0.03034   0.02434  -0.0278   1.0000   0.0269
 -12.300  -1.1679   0.02986   0.02381  -0.0270   1.0000   0.0272
 -12.200  -1.1642   0.02939   0.02329  -0.0262   1.0000   0.0274
 -12.000  -1.1562   0.02852   0.02231  -0.0246   1.0000   0.0279
 -11.900  -1.1519   0.02814   0.02187  -0.0238   1.0000   0.0281
 -11.800  -1.1472   0.02779   0.02146  -0.0230   1.0000   0.0283
 -11.700  -1.1431   0.02716   0.02078  -0.0222   1.0000   0.0286
 -11.600  -1.1393   0.02641   0.02002  -0.0214   1.0000   0.0289
 -11.500  -1.1344   0.02588   0.01948  -0.0207   1.0000   0.0293
 -11.400  -1.1287   0.02547   0.01906  -0.0201   1.0000   0.0296
 -11.300  -1.1226   0.02510   0.01869  -0.0196   1.0000   0.0299
 -11.200  -1.1162   0.02477   0.01834  -0.0190   1.0000   0.0303
 -11.000  -1.1027   0.02415   0.01768  -0.0180   1.0000   0.0311
 -10.900  -1.0957   0.02385   0.01735  -0.0175   1.0000   0.0315
 -10.800  -1.0886   0.02355   0.01702  -0.0170   1.0000   0.0320
 -10.700  -1.0813   0.02325   0.01668  -0.0165   1.0000   0.0324
 -10.600  -1.0738   0.02298   0.01636  -0.0160   1.0000   0.0329
 -10.500  -1.0659   0.02274   0.01607  -0.0155   1.0000   0.0333
 -10.400  -1.0595   0.02229   0.01558  -0.0149   1.0000   0.0337
 -10.300  -1.0545   0.02169   0.01499  -0.0142   1.0000   0.0343
 -10.200  -1.0479   0.02130   0.01460  -0.0136   1.0000   0.0348
 -10.000  -1.0330   0.02072   0.01401  -0.0126   1.0000   0.0358
  -9.900  -1.0253   0.02046   0.01374  -0.0122   1.0000   0.0363
  -9.800  -1.0174   0.02020   0.01346  -0.0117   1.0000   0.0369
  -9.700  -1.0095   0.01995   0.01318  -0.0113   1.0000   0.0376
  -9.600  -1.0013   0.01971   0.01291  -0.0108   1.0000   0.0382
  -9.500  -0.9929   0.01951   0.01267  -0.0104   1.0000   0.0388
  -9.400  -0.9840   0.01935   0.01246  -0.0100   1.0000   0.0393
  -9.300  -0.9792   0.01877   0.01189  -0.0091   1.0000   0.0402
  -9.200  -0.9722   0.01843   0.01157  -0.0086   1.0000   0.0410
  -9.000  -0.9561   0.01798   0.01112  -0.0076   1.0000   0.0426
  -8.900  -0.9478   0.01778   0.01090  -0.0072   1.0000   0.0435
  -8.800  -0.9395   0.01758   0.01068  -0.0067   1.0000   0.0444
  -8.700  -0.9311   0.01739   0.01047  -0.0062   1.0000   0.0452
  -8.600  -0.9223   0.01724   0.01028  -0.0058   1.0000   0.0459
  -8.500  -0.9165   0.01681   0.00985  -0.0050   1.0000   0.0470
  -8.400  -0.9096   0.01651   0.00956  -0.0043   1.0000   0.0482
  -8.300  -0.9017   0.01630   0.00936  -0.0038   1.0000   0.0493
  -8.200  -0.8935   0.01612   0.00918  -0.0033   1.0000   0.0505
  -8.000  -0.8766   0.01581   0.00883  -0.0023   1.0000   0.0529
  -7.900  -0.8682   0.01566   0.00865  -0.0018   1.0000   0.0540
  -7.800  -0.8620   0.01529   0.00831  -0.0010   1.0000   0.0558
  -7.700  -0.8544   0.01507   0.00811  -0.0004   1.0000   0.0574
  -7.600  -0.8462   0.01490   0.00794   0.0001   1.0000   0.0589
  -7.500  -0.8378   0.01475   0.00777   0.0007   1.0000   0.0606
  -7.400  -0.8292   0.01463   0.00762   0.0011   1.0000   0.0622
  -7.300  -0.8219   0.01437   0.00737   0.0018   1.0000   0.0642
  -7.200  -0.8144   0.01414   0.00717   0.0024   1.0000   0.0665
  -7.000  -0.7978   0.01385   0.00688   0.0035   1.0000   0.0711
  -6.900  -0.7894   0.01372   0.00673   0.0040   1.0000   0.0732
  -6.800  -0.7822   0.01346   0.00652   0.0047   1.0000   0.0765
  -6.700  -0.7741   0.01330   0.00637   0.0052   1.0000   0.0795
  -6.600  -0.7657   0.01318   0.00623   0.0057   1.0000   0.0825
  -6.500  -0.7577   0.01300   0.00607   0.0063   1.0000   0.0860
  -6.400  -0.7498   0.01281   0.00592   0.0069   1.0000   0.0900
  -6.300  -0.7415   0.01268   0.00580   0.0074   1.0000   0.0942
  -6.200  -0.7333   0.01253   0.00565   0.0079   1.0000   0.0985
  -6.000  -0.7168   0.01224   0.00541   0.0089   1.0000   0.1087
  -5.900  -0.7088   0.01205   0.00528   0.0095   1.0000   0.1148
  -5.800  -0.7004   0.01192   0.00516   0.0100   1.0000   0.1211
  -5.700  -0.6922   0.01176   0.00505   0.0105   1.0000   0.1279
  -5.600  -0.6838   0.01163   0.00494   0.0109   1.0000   0.1355
  -5.500  -0.6755   0.01148   0.00484   0.0114   1.0000   0.1434
  -5.400  -0.6669   0.01136   0.00475   0.0118   1.0000   0.1517
  -5.300  -0.6586   0.01120   0.00465   0.0123   1.0000   0.1609
  -5.200  -0.6500   0.01108   0.00456   0.0127   1.0000   0.1701
  -5.000  -0.6328   0.01082   0.00440   0.0135   1.0000   0.1906
  -4.900  -0.6241   0.01070   0.00432   0.0139   1.0000   0.2009
  -4.800  -0.6153   0.01059   0.00426   0.0143   1.0000   0.2122
  -4.700  -0.6066   0.01047   0.00420   0.0146   1.0000   0.2237
  -4.600  -0.5931   0.01033   0.00412   0.0140   0.9991   0.2374
  -4.500  -0.5779   0.01018   0.00404   0.0130   0.9979   0.2521
  -4.400  -0.5626   0.01005   0.00397   0.0120   0.9966   0.2672
  -4.300  -0.5473   0.00992   0.00391   0.0110   0.9953   0.2826
  -4.200  -0.5317   0.00979   0.00384   0.0100   0.9942   0.2979
  -4.000  -0.5022   0.00954   0.00371   0.0083   0.9910   0.3281
  -3.900  -0.4873   0.00942   0.00365   0.0074   0.9893   0.3432
  -3.700  -0.4567   0.00919   0.00354   0.0055   0.9861   0.3736
  -3.600  -0.4410   0.00907   0.00348   0.0045   0.9848   0.3889
  -3.500  -0.4250   0.00896   0.00343   0.0034   0.9836   0.4040
  -3.400  -0.4096   0.00885   0.00338   0.0025   0.9822   0.4189
  -3.300  -0.3964   0.00874   0.00333   0.0020   0.9795   0.4325
  -3.200  -0.3819   0.00863   0.00328   0.0013   0.9772   0.4466
  -3.000  -0.3510   0.00842   0.00317  -0.0005   0.9738   0.4753
  -2.800  -0.3188   0.00821   0.00307  -0.0026   0.9712   0.5043
  -2.700  -0.3029   0.00811   0.00302  -0.0036   0.9700   0.5183
  -2.600  -0.2917   0.00801   0.00298  -0.0036   0.9658   0.5305
  -2.500  -0.2782   0.00792   0.00293  -0.0040   0.9628   0.5434
  -2.300  -0.2498   0.00772   0.00283  -0.0052   0.9579   0.5696
  -2.200  -0.2354   0.00763   0.00278  -0.0058   0.9558   0.5823
  -2.000  -0.2132   0.00747   0.00271  -0.0055   0.9464   0.6061
  -1.900  -0.2006   0.00738   0.00266  -0.0057   0.9430   0.6180
  -1.800  -0.1880   0.00729   0.00262  -0.0059   0.9396   0.6298
  -1.700  -0.1781   0.00723   0.00259  -0.0055   0.9335   0.6411
  -1.600  -0.1670   0.00715   0.00255  -0.0053   0.9286   0.6525
  -1.500  -0.1550   0.00708   0.00251  -0.0053   0.9247   0.6638
  -1.400  -0.1451   0.00702   0.00249  -0.0049   0.9181   0.6749
  -1.300  -0.1345   0.00696   0.00246  -0.0046   0.9123   0.6860
  -1.200  -0.1234   0.00689   0.00243  -0.0044   0.9074   0.6967
  -1.000  -0.1029   0.00679   0.00238  -0.0037   0.8940   0.7181
  -0.900  -0.0926   0.00675   0.00236  -0.0033   0.8874   0.7284
  -0.800  -0.0823   0.00671   0.00234  -0.0030   0.8801   0.7392
  -0.700  -0.0719   0.00667   0.00232  -0.0026   0.8736   0.7491
  -0.600  -0.0617   0.00664   0.00231  -0.0023   0.8655   0.7592
  -0.500  -0.0514   0.00661   0.00229  -0.0019   0.8584   0.7692
  -0.400  -0.0411   0.00659   0.00229  -0.0015   0.8499   0.7788
  -0.300  -0.0308   0.00657   0.00227  -0.0011   0.8421   0.7887
  -0.200  -0.0206   0.00655   0.00227  -0.0007   0.8334   0.7978
   0.000   0.0000   0.00654   0.00227  -0.0000   0.8160   0.8160
   0.100   0.0103   0.00656   0.00226   0.0004   0.8075   0.8252
   0.200   0.0206   0.00655   0.00227   0.0007   0.7979   0.8335
   0.300   0.0308   0.00657   0.00227   0.0011   0.7888   0.8422
   0.400   0.0411   0.00659   0.00229   0.0015   0.7788   0.8500
   0.500   0.0514   0.00661   0.00229   0.0019   0.7692   0.8584
   0.600   0.0617   0.00664   0.00231   0.0023   0.7593   0.8654
   0.700   0.0719   0.00667   0.00232   0.0026   0.7490   0.8736
   0.800   0.0823   0.00671   0.00234   0.0030   0.7392   0.8800
   1.000   0.1030   0.00679   0.00238   0.0037   0.7181   0.8940
   1.200   0.1234   0.00689   0.00243   0.0044   0.6966   0.9074
   1.300   0.1345   0.00696   0.00246   0.0046   0.6858   0.9123
   1.400   0.1451   0.00702   0.00249   0.0049   0.6748   0.9181
   1.500   0.1550   0.00708   0.00251   0.0053   0.6638   0.9247
   1.600   0.1670   0.00715   0.00255   0.0053   0.6526   0.9286
   1.700   0.1781   0.00723   0.00259   0.0055   0.6412   0.9334
   1.800   0.1880   0.00729   0.00262   0.0059   0.6298   0.9396
   2.000   0.2132   0.00747   0.00271   0.0055   0.6061   0.9464
   2.100   0.2253   0.00755   0.00275   0.0055   0.5938   0.9505
   2.200   0.2354   0.00763   0.00278   0.0058   0.5823   0.9558
   2.300   0.2498   0.00772   0.00283   0.0052   0.5696   0.9579
   2.500   0.2782   0.00792   0.00293   0.0040   0.5433   0.9628
   2.600   0.2917   0.00801   0.00298   0.0036   0.5305   0.9658
   2.700   0.3029   0.00811   0.00302   0.0036   0.5183   0.9700
   2.800   0.3188   0.00821   0.00307   0.0026   0.5043   0.9712
   3.000   0.3511   0.00842   0.00317   0.0005   0.4753   0.9738
   3.100   0.3667   0.00852   0.00322  -0.0004   0.4610   0.9754
   3.200   0.3819   0.00863   0.00327  -0.0013   0.4466   0.9772
   3.300   0.3964   0.00874   0.00333  -0.0020   0.4325   0.9795
   3.400   0.4095   0.00885   0.00338  -0.0025   0.4189   0.9823
   3.500   0.4250   0.00896   0.00343  -0.0034   0.4039   0.9836
   3.600   0.4410   0.00907   0.00348  -0.0045   0.3889   0.9848
   3.700   0.4567   0.00919   0.00354  -0.0055   0.3736   0.9861
   4.000   0.5021   0.00954   0.00371  -0.0083   0.3281   0.9911
   4.100   0.5166   0.00967   0.00378  -0.0091   0.3130   0.9929
   4.200   0.5317   0.00979   0.00384  -0.0100   0.2979   0.9942
   4.300   0.5473   0.00992   0.00391  -0.0110   0.2825   0.9953
   4.400   0.5626   0.01005   0.00397  -0.0120   0.2671   0.9966
   4.500   0.5779   0.01018   0.00404  -0.0130   0.2522   0.9979
   4.600   0.5931   0.01033   0.00412  -0.0140   0.2374   0.9992
   4.700   0.6065   0.01047   0.00419  -0.0146   0.2237   1.0000
   4.800   0.6153   0.01059   0.00426  -0.0143   0.2123   1.0000
   5.000   0.6327   0.01082   0.00440  -0.0135   0.1906   1.0000
   5.100   0.6413   0.01095   0.00448  -0.0131   0.1803   1.0000
   5.200   0.6499   0.01108   0.00456  -0.0127   0.1702   1.0000
   5.300   0.6585   0.01120   0.00465  -0.0123   0.1610   1.0000
   5.400   0.6668   0.01136   0.00475  -0.0118   0.1517   1.0000
   5.500   0.6754   0.01148   0.00484  -0.0114   0.1434   1.0000
   5.600   0.6837   0.01163   0.00494  -0.0109   0.1355   1.0000
   5.700   0.6921   0.01176   0.00504  -0.0104   0.1280   1.0000
   5.800   0.7003   0.01192   0.00516  -0.0099   0.1212   1.0000
   6.000   0.7167   0.01223   0.00541  -0.0089   0.1087   1.0000
   6.100   0.7252   0.01235   0.00552  -0.0084   0.1037   1.0000
   6.200   0.7332   0.01252   0.00565  -0.0079   0.0985   1.0000
   6.300   0.7414   0.01268   0.00580  -0.0074   0.0942   1.0000
   6.400   0.7497   0.01281   0.00592  -0.0069   0.0900   1.0000
   6.500   0.7576   0.01300   0.00607  -0.0063   0.0860   1.0000
   6.600   0.7656   0.01317   0.00623  -0.0057   0.0825   1.0000
   6.700   0.7740   0.01330   0.00637  -0.0052   0.0795   1.0000
   6.800   0.7821   0.01346   0.00651  -0.0047   0.0765   1.0000
   7.000   0.7977   0.01385   0.00688  -0.0035   0.0711   1.0000
   7.100   0.8062   0.01398   0.00702  -0.0030   0.0688   1.0000
   7.200   0.8144   0.01414   0.00717  -0.0024   0.0665   1.0000
   7.300   0.8218   0.01437   0.00737  -0.0018   0.0642   1.0000
   7.400   0.8291   0.01463   0.00762  -0.0011   0.0622   1.0000
   7.500   0.8378   0.01475   0.00777  -0.0007   0.0606   1.0000
   7.600   0.8461   0.01490   0.00794  -0.0001   0.0589   1.0000
   7.700   0.8543   0.01507   0.00810   0.0004   0.0574   1.0000
   7.800   0.8620   0.01529   0.00831   0.0010   0.0558   1.0000
   8.000   0.8766   0.01581   0.00883   0.0023   0.0529   1.0000
   8.100   0.8851   0.01595   0.00900   0.0028   0.0517   1.0000
   8.200   0.8934   0.01612   0.00918   0.0033   0.0505   1.0000
   8.300   0.9017   0.01629   0.00936   0.0038   0.0493   1.0000
   8.400   0.9096   0.01650   0.00956   0.0043   0.0482   1.0000
   8.500   0.9165   0.01681   0.00985   0.0050   0.0470   1.0000
   8.600   0.9224   0.01724   0.01027   0.0058   0.0459   1.0000
   8.700   0.9311   0.01739   0.01047   0.0062   0.0452   1.0000
   8.800   0.9396   0.01758   0.01068   0.0067   0.0444   1.0000
   9.000   0.9561   0.01798   0.01112   0.0076   0.0426   1.0000
   9.100   0.9643   0.01819   0.01134   0.0081   0.0418   1.0000
   9.200   0.9722   0.01843   0.01157   0.0085   0.0410   1.0000
   9.300   0.9792   0.01877   0.01189   0.0091   0.0402   1.0000
   9.400   0.9841   0.01935   0.01246   0.0100   0.0393   1.0000
   9.500   0.9930   0.01951   0.01267   0.0104   0.0388   1.0000
   9.600   1.0014   0.01971   0.01291   0.0108   0.0382   1.0000
   9.700   1.0096   0.01995   0.01318   0.0112   0.0375   1.0000
   9.800   1.0175   0.02020   0.01346   0.0117   0.0369   1.0000
  10.000   1.0332   0.02072   0.01401   0.0126   0.0358   1.0000
  10.100   1.0408   0.02100   0.01429   0.0131   0.0353   1.0000
  10.200   1.0480   0.02130   0.01460   0.0136   0.0348   1.0000
  10.300   1.0546   0.02169   0.01499   0.0142   0.0343   1.0000
  10.400   1.0596   0.02230   0.01559   0.0149   0.0337   1.0000
  10.500   1.0661   0.02274   0.01607   0.0155   0.0332   1.0000
  10.600   1.0739   0.02298   0.01636   0.0160   0.0329   1.0000
  10.700   1.0815   0.02326   0.01668   0.0164   0.0324   1.0000
  10.800   1.0888   0.02355   0.01702   0.0169   0.0320   1.0000
  11.000   1.1029   0.02415   0.01768   0.0179   0.0311   1.0000
  11.100   1.1097   0.02446   0.01801   0.0185   0.0306   1.0000
  11.200   1.1164   0.02477   0.01835   0.0190   0.0302   1.0000
  11.300   1.1229   0.02510   0.01869   0.0195   0.0299   1.0000
  11.400   1.1290   0.02547   0.01906   0.0201   0.0296   1.0000
  11.500   1.1346   0.02589   0.01949   0.0207   0.0292   1.0000
  11.600   1.1396   0.02641   0.02002   0.0214   0.0289   1.0000
  11.700   1.1433   0.02718   0.02080   0.0221   0.0286   1.0000
  11.800   1.1476   0.02779   0.02146   0.0229   0.0283   1.0000
  12.000   1.1567   0.02852   0.02231   0.0245   0.0279   1.0000
  12.100   1.1608   0.02895   0.02280   0.0253   0.0276   1.0000
  12.200   1.1647   0.02939   0.02329   0.0261   0.0274   1.0000
  12.300   1.1685   0.02985   0.02381   0.0269   0.0271   1.0000
  12.400   1.1721   0.03033   0.02433   0.0277   0.0269   1.0000
  12.500   1.1756   0.03082   0.02487   0.0284   0.0266   1.0000
  12.600   1.1789   0.03132   0.02542   0.0292   0.0264   1.0000
  12.700   1.1821   0.03182   0.02596   0.0298   0.0262   1.0000
  12.800   1.1853   0.03233   0.02650   0.0305   0.0259   1.0000
  13.000   1.1915   0.03337   0.02761   0.0316   0.0255   1.0000
  13.100   1.1945   0.03390   0.02817   0.0321   0.0253   1.0000
  13.200   1.1974   0.03447   0.02876   0.0326   0.0251   1.0000
  13.300   1.2002   0.03507   0.02937   0.0331   0.0249   1.0000
  13.400   1.2026   0.03572   0.03005   0.0335   0.0247   1.0000
  13.500   1.2047   0.03647   0.03080   0.0340   0.0245   1.0000
  13.600   1.2058   0.03737   0.03173   0.0344   0.0243   1.0000
  13.700   1.2053   0.03859   0.03300   0.0349   0.0241   1.0000
  13.800   1.2047   0.03963   0.03410   0.0353   0.0239   1.0000
  14.000   1.2046   0.04143   0.03606   0.0358   0.0237   1.0000
  14.100   1.2041   0.04244   0.03715   0.0359   0.0236   1.0000
  14.200   1.2034   0.04351   0.03830   0.0359   0.0235   1.0000
  14.300   1.2023   0.04465   0.03951   0.0359   0.0234   1.0000
  14.400   1.2009   0.04586   0.04080   0.0358   0.0233   1.0000
  14.500   1.1993   0.04714   0.04216   0.0356   0.0232   1.0000
  14.600   1.1973   0.04849   0.04358   0.0353   0.0231   1.0000
  14.700   1.1950   0.04991   0.04508   0.0350   0.0230   1.0000
  14.800   1.1924   0.05140   0.04664   0.0345   0.0229   1.0000
  15.000   1.1863   0.05462   0.05001   0.0334   0.0227   1.0000
  15.100   1.1828   0.05634   0.05180   0.0327   0.0226   1.0000
  15.200   1.1789   0.05815   0.05368   0.0319   0.0225   1.0000
  15.300   1.1745   0.06006   0.05566   0.0310   0.0225   1.0000
  15.400   1.1699   0.06205   0.05772   0.0300   0.0224   1.0000
  15.500   1.1649   0.06414   0.05989   0.0289   0.0223   1.0000
  15.600   1.1592   0.06637   0.06219   0.0277   0.0223   1.0000
  15.700   1.1531   0.06869   0.06459   0.0265   0.0222   1.0000
  15.800   1.1465   0.07114   0.06712   0.0251   0.0222   1.0000
  16.000   1.1312   0.07655   0.07268   0.0219   0.0221   1.0000
  16.100   1.1225   0.07951   0.07571   0.0201   0.0221   1.0000
  16.200   1.1124   0.08279   0.07907   0.0181   0.0221   1.0000
  16.300   1.1017   0.08625   0.08262   0.0160   0.0221   1.0000
  16.400   1.0893   0.09013   0.08659   0.0136   0.0222   1.0000
  16.500   1.0755   0.09440   0.09095   0.0109   0.0222   1.0000
  16.600   1.0590   0.09932   0.09597   0.0077   0.0223   1.0000
  16.700   1.0388   0.10515   0.10192   0.0040   0.0224   1.0000
  16.800   1.0120   0.11262   0.10952  -0.0007   0.0227   1.0000
  17.200   0.5211   0.17023   0.16771  -0.0148   0.0343   1.0000
  17.300   0.5243   0.17091   0.16840  -0.0149   0.0341   1.0000
  17.400   0.5285   0.17152   0.16901  -0.0149   0.0340   1.0000
  17.500   0.5332   0.17211   0.16961  -0.0148   0.0338   1.0000
  17.600   0.5378   0.17278   0.17028  -0.0146   0.0336   1.0000
  17.700   0.5407   0.17412   0.17162  -0.0145   0.0334   1.0000
  17.800   0.5366   0.17601   0.17350  -0.0158   0.0334   1.0000
  18.000   0.5199   0.18069   0.17818  -0.0200   0.0312   1.0000
  18.100   0.5211   0.18171   0.17921  -0.0205   0.0307   1.0000
  18.200   0.5226   0.18268   0.18017  -0.0209   0.0303   1.0000
  18.300   0.5243   0.18361   0.18111  -0.0213   0.0300   1.0000
  18.400   0.5262   0.18449   0.18199  -0.0217   0.0297   1.0000
  18.500   0.5283   0.18534   0.18285  -0.0220   0.0295   1.0000
  18.600   0.5306   0.18613   0.18364  -0.0223   0.0292   1.0000
  18.700   0.5333   0.18689   0.18440  -0.0226   0.0291   1.0000
  18.800   0.5362   0.18763   0.18514  -0.0228   0.0289   1.0000
  19.000   0.5439   0.18909   0.18662  -0.0228   0.0286   1.0000
  19.100   0.5490   0.18992   0.18745  -0.0226   0.0285   1.0000
  19.200   0.5528   0.19124   0.18876  -0.0226   0.0284   1.0000
  19.300   0.5504   0.19279   0.19032  -0.0236   0.0283   1.0000
  19.400   0.5421   0.19485   0.19238  -0.0257   0.0281   1.0000
  19.500   0.5371   0.19709   0.19461  -0.0274   0.0271   1.0000
  19.600   0.5382   0.19826   0.19579  -0.0280   0.0266   1.0000
  19.700   0.5395   0.19934   0.19687  -0.0285   0.0262   1.0000
  19.800   0.5410   0.20035   0.19788  -0.0290   0.0258   1.0000
