  
       XFOIL         Version 6.99
  
 Calculated polar for: NACA 0012                                       
  
 1 1 Reynolds number fixed          Mach number fixed         
  
 xtrf =   1.000 (top)        1.000 (bottom)  
 Mach =   0.000     Re =     0.050 e 6     Ncrit =   9.000
  
   alpha    CL        CD       CDp       CM     Top_Xtr  Bot_Xtr
  ------ -------- --------- --------- -------- -------- --------
 -20.000  -0.5329   0.21215   0.20513   0.0292   1.0000   0.1279
 -19.900  -0.5307   0.21104   0.20401   0.0289   1.0000   0.1294
 -19.800  -0.5289   0.21007   0.20303   0.0285   1.0000   0.1311
 -19.700  -0.5279   0.20925   0.20221   0.0280   1.0000   0.1328
 -19.600  -0.5278   0.20874   0.20169   0.0274   1.0000   0.1345
 -19.500  -0.5296   0.20882   0.20177   0.0266   1.0000   0.1358
 -19.400  -0.5333   0.20959   0.20254   0.0258   1.0000   0.1366
 -19.300  -0.5384   0.21089   0.20384   0.0249   1.0000   0.1370
 -19.000  -0.5197   0.20248   0.19541   0.0248   1.0000   0.1406
 -18.900  -0.5162   0.20110   0.19402   0.0246   1.0000   0.1422
 -18.800  -0.5137   0.19999   0.19290   0.0243   1.0000   0.1440
 -18.700  -0.5121   0.19905   0.19194   0.0239   1.0000   0.1457
 -18.600  -0.5112   0.19828   0.19117   0.0234   1.0000   0.1475
 -18.500  -0.5115   0.19785   0.19073   0.0228   1.0000   0.1492
 -18.400  -0.5139   0.19803   0.19091   0.0221   1.0000   0.1505
 -18.300  -0.5184   0.19888   0.19176   0.0213   1.0000   0.1513
 -18.200  -0.5243   0.20024   0.19312   0.0205   1.0000   0.1517
 -18.000  -0.7513   0.22569   0.21773   0.0540   1.0000   0.1451
 -17.900  -0.7486   0.22467   0.21671   0.0532   1.0000   0.1472
 -17.800  -0.7475   0.22412   0.21616   0.0521   1.0000   0.1492
 -17.700  -0.7492   0.22453   0.21660   0.0505   1.0000   0.1507
 -17.600  -0.7535   0.22583   0.21792   0.0487   1.0000   0.1515
 -17.500  -0.7594   0.22763   0.21976   0.0468   1.0000   0.1519
 -17.400  -0.7456   0.22156   0.21367   0.0475   1.0000   0.1529
 -17.300  -0.7355   0.21787   0.20995   0.0480   1.0000   0.1543
 -17.200  -0.7291   0.21575   0.20781   0.0480   1.0000   0.1559
 -17.000  -0.4903   0.18292   0.17572   0.0171   1.0000   0.1706
 -16.900  -0.4864   0.18155   0.17434   0.0170   1.0000   0.1726
 -16.800  -0.4842   0.18052   0.17331   0.0167   1.0000   0.1748
 -16.700  -0.4833   0.17977   0.17255   0.0164   1.0000   0.1770
 -16.600  -0.4844   0.17947   0.17224   0.0159   1.0000   0.1792
 -16.500  -0.4890   0.18002   0.17279   0.0152   1.0000   0.1808
 -16.400  -0.4965   0.18136   0.17414   0.0144   1.0000   0.1816
 -16.300  -0.5058   0.18319   0.17597   0.0137   1.0000   0.1821
 -16.200  -0.4867   0.17684   0.16960   0.0140   1.0000   0.1838
 -16.000  -0.6949   0.20095   0.19300   0.0405   1.0000   0.1795
 -15.900  -0.7000   0.20162   0.19370   0.0389   1.0000   0.1811
 -15.800  -0.7081   0.20299   0.19511   0.0372   1.0000   0.1819
 -15.700  -0.7017   0.19998   0.19211   0.0369   1.0000   0.1828
 -15.600  -0.6872   0.19564   0.18772   0.0376   1.0000   0.1846
 -15.500  -0.6797   0.19347   0.18554   0.0377   1.0000   0.1866
 -15.400  -0.6750   0.19193   0.18399   0.0375   1.0000   0.1889
 -15.300  -0.6722   0.19074   0.18280   0.0370   1.0000   0.1916
 -15.200  -0.6726   0.19012   0.18219   0.0361   1.0000   0.1945
 -15.000  -0.4679   0.16527   0.15796   0.0110   1.0000   0.2110
 -14.900  -0.4776   0.16667   0.15937   0.0104   1.0000   0.2124
 -14.800  -0.4899   0.16868   0.16138   0.0100   1.0000   0.2130
 -14.700  -0.4701   0.16295   0.15564   0.0100   1.0000   0.2149
 -14.600  -0.4595   0.16032   0.15300   0.0102   1.0000   0.2179
 -14.500  -0.4559   0.15917   0.15183   0.0101   1.0000   0.2213
 -14.400  -0.4570   0.15879   0.15144   0.0099   1.0000   0.2247
 -14.300  -0.4647   0.15961   0.15227   0.0094   1.0000   0.2273
 -14.200  -0.4771   0.16139   0.15406   0.0090   1.0000   0.2284
 -14.000  -0.6390   0.17319   0.16526   0.0307   1.0000   0.2210
 -13.900  -0.6381   0.17217   0.16424   0.0301   1.0000   0.2243
 -13.800  -0.6444   0.17222   0.16431   0.0290   1.0000   0.2272
 -13.700  -0.6572   0.17319   0.16533   0.0276   1.0000   0.2285
 -13.600  -0.6480   0.17001   0.16215   0.0276   1.0000   0.2299
 -13.500  -0.6308   0.16656   0.15865   0.0283   1.0000   0.2333
 -13.400  -0.6253   0.16503   0.15712   0.0283   1.0000   0.2371
 -13.300  -0.6263   0.16426   0.15635   0.0277   1.0000   0.2410
 -13.200  -0.6367   0.16466   0.15679   0.0266   1.0000   0.2436
 -13.000  -0.6242   0.16012   0.15224   0.0263   1.0000   0.2477
 -12.900  -0.6156   0.15816   0.15026   0.0265   1.0000   0.2510
 -12.800  -0.6131   0.15688   0.14896   0.0262   1.0000   0.2544
 -12.700  -0.6179   0.15640   0.14850   0.0255   1.0000   0.2581
 -12.600  -0.6333   0.15706   0.14923   0.0242   1.0000   0.2601
 -12.500  -0.6289   0.15475   0.14693   0.0239   1.0000   0.2615
 -12.400  -0.6104   0.15142   0.14353   0.0246   1.0000   0.2645
 -12.300  -0.6032   0.14976   0.14186   0.0247   1.0000   0.2686
 -12.200  -0.6053   0.14894   0.14105   0.0243   1.0000   0.2731
 -12.000  -0.6232   0.14790   0.14009   0.0226   1.0000   0.2772
 -11.900  -0.5985   0.14425   0.13637   0.0236   1.0000   0.2817
 -11.800  -0.5941   0.14282   0.13493   0.0236   1.0000   0.2858
 -11.700  -0.5999   0.14223   0.13436   0.0230   1.0000   0.2902
 -11.600  -0.6170   0.14251   0.13470   0.0219   1.0000   0.2923
 -11.300  -0.5860   0.13555   0.12767   0.0224   1.0000   0.3010
 -11.200  -0.5902   0.13474   0.12688   0.0220   1.0000   0.3058
 -11.000  -0.5957   0.13201   0.12419   0.0212   1.0000   0.3108
 -10.900  -0.5802   0.12982   0.12195   0.0217   1.0000   0.3156
 -10.800  -0.5803   0.12869   0.12082   0.0216   1.0000   0.3205
 -10.700  -0.5956   0.12850   0.12069   0.0208   1.0000   0.3242
 -10.500  -0.5811   0.12418   0.11634   0.0207   1.0000   0.3286
 -10.400  -0.5744   0.12243   0.11457   0.0207   1.0000   0.3313
 -10.300  -0.5724   0.12100   0.11314   0.0206   1.0000   0.3347
 -10.200  -0.5807   0.12019   0.11236   0.0202   1.0000   0.3392
 -10.000  -0.8386   0.07444   0.06671  -0.0229   1.0000   0.1519
  -9.900  -0.8442   0.07226   0.06449  -0.0228   1.0000   0.1518
  -9.800  -0.8500   0.07012   0.06227  -0.0226   1.0000   0.1516
  -9.700  -0.8560   0.06800   0.06006  -0.0223   1.0000   0.1515
  -9.600  -0.8618   0.06590   0.05786  -0.0219   1.0000   0.1514
  -9.500  -0.8674   0.06385   0.05568  -0.0215   1.0000   0.1513
  -9.400  -0.8725   0.06184   0.05353  -0.0209   1.0000   0.1514
  -9.300  -0.8771   0.05987   0.05140  -0.0203   1.0000   0.1515
  -9.200  -0.8810   0.05797   0.04931  -0.0195   1.0000   0.1516
  -9.000  -0.8682   0.05514   0.04653  -0.0189   1.0000   0.1544
  -8.900  -0.8610   0.05418   0.04559  -0.0185   1.0000   0.1565
  -8.800  -0.8583   0.05291   0.04423  -0.0179   1.0000   0.1582
  -8.700  -0.8572   0.05149   0.04269  -0.0172   1.0000   0.1598
  -8.600  -0.8567   0.05001   0.04104  -0.0165   1.0000   0.1614
  -8.500  -0.8565   0.04849   0.03931  -0.0157   1.0000   0.1630
  -8.400  -0.8562   0.04697   0.03755  -0.0148   1.0000   0.1645
  -8.300  -0.8558   0.04548   0.03578  -0.0138   1.0000   0.1659
  -8.200  -0.8523   0.04408   0.03422  -0.0130   1.0000   0.1678
  -8.000  -0.8345   0.04249   0.03276  -0.0124   1.0000   0.1745
  -7.900  -0.8301   0.04141   0.03152  -0.0116   1.0000   0.1778
  -7.800  -0.8273   0.04021   0.03003  -0.0107   1.0000   0.1808
  -7.700  -0.8207   0.03912   0.02889  -0.0101   1.0000   0.1840
  -7.600  -0.8113   0.03842   0.02828  -0.0098   1.0000   0.1882
  -7.500  -0.8047   0.03759   0.02735  -0.0091   1.0000   0.1927
  -7.400  -0.8007   0.03658   0.02603  -0.0082   1.0000   0.1971
  -7.300  -0.7910   0.03583   0.02545  -0.0079   1.0000   0.2020
  -7.200  -0.7832   0.03512   0.02472  -0.0074   1.0000   0.2074
  -7.000  -0.7682   0.03360   0.02312  -0.0062   1.0000   0.2191
  -6.900  -0.7613   0.03290   0.02230  -0.0055   1.0000   0.2261
  -6.800  -0.7532   0.03218   0.02162  -0.0050   1.0000   0.2328
  -6.700  -0.7454   0.03158   0.02100  -0.0043   1.0000   0.2407
  -6.600  -0.7376   0.03093   0.02037  -0.0037   1.0000   0.2488
  -6.500  -0.7302   0.03035   0.01975  -0.0030   1.0000   0.2581
  -6.400  -0.7217   0.02978   0.01929  -0.0025   1.0000   0.2671
  -6.300  -0.7149   0.02917   0.01860  -0.0017   1.0000   0.2779
  -6.200  -0.7067   0.02870   0.01825  -0.0010   1.0000   0.2889
  -6.000  -0.6914   0.02768   0.01734   0.0004   1.0000   0.3129
  -5.900  -0.6844   0.02721   0.01688   0.0013   1.0000   0.3268
  -5.800  -0.6775   0.02676   0.01647   0.0021   1.0000   0.3415
  -5.700  -0.6697   0.02636   0.01618   0.0029   1.0000   0.3561
  -5.600  -0.6624   0.02598   0.01591   0.0038   1.0000   0.3716
  -5.500  -0.6551   0.02562   0.01565   0.0048   1.0000   0.3879
  -5.400  -0.6479   0.02527   0.01538   0.0057   1.0000   0.4047
  -5.300  -0.6409   0.02495   0.01514   0.0067   1.0000   0.4220
  -5.200  -0.6340   0.02465   0.01489   0.0077   1.0000   0.4398
  -5.000  -0.6191   0.02415   0.01461   0.0098   1.0000   0.4748
  -4.900  -0.6117   0.02394   0.01450   0.0109   1.0000   0.4924
  -4.800  -0.6041   0.02374   0.01440   0.0120   1.0000   0.5100
  -4.700  -0.5966   0.02358   0.01431   0.0132   1.0000   0.5275
  -4.600  -0.5891   0.02342   0.01424   0.0143   1.0000   0.5449
  -4.500  -0.5815   0.02329   0.01417   0.0155   1.0000   0.5622
  -4.400  -0.5739   0.02317   0.01412   0.0167   1.0000   0.5793
  -4.300  -0.5662   0.02307   0.01407   0.0180   1.0000   0.5961
  -4.200  -0.5585   0.02298   0.01403   0.0192   1.0000   0.6127
  -4.000  -0.5430   0.02286   0.01400   0.0218   1.0000   0.6454
  -3.900  -0.5351   0.02282   0.01400   0.0231   1.0000   0.6613
  -3.800  -0.5273   0.02279   0.01400   0.0244   1.0000   0.6772
  -3.700  -0.5194   0.02277   0.01400   0.0257   1.0000   0.6929
  -3.600  -0.5115   0.02276   0.01401   0.0270   1.0000   0.7085
  -3.500  -0.5036   0.02276   0.01401   0.0283   1.0000   0.7240
  -3.400  -0.4935   0.02288   0.01415   0.0295   1.0000   0.7382
  -3.300  -0.4829   0.02300   0.01428   0.0306   1.0000   0.7524
  -3.200  -0.4720   0.02312   0.01440   0.0317   1.0000   0.7667
  -3.000  -0.4489   0.02335   0.01459   0.0333   1.0000   0.7957
  -2.900  -0.4365   0.02346   0.01467   0.0338   1.0000   0.8103
  -2.800  -0.4232   0.02357   0.01474   0.0342   1.0000   0.8252
  -2.700  -0.4025   0.02384   0.01494   0.0335   1.0000   0.8389
  -2.600  -0.3766   0.02414   0.01517   0.0318   1.0000   0.8522
  -2.500  -0.3499   0.02437   0.01531   0.0298   1.0000   0.8656
  -2.400  -0.3225   0.02454   0.01539   0.0274   1.0000   0.8794
  -2.300  -0.2956   0.02464   0.01539   0.0248   1.0000   0.8932
  -2.200  -0.2583   0.02474   0.01537   0.0204   1.0000   0.9060
  -2.000  -0.1830   0.02464   0.01505   0.0107   1.0000   0.9296
  -1.900  -0.1538   0.02446   0.01481   0.0071   1.0000   0.9422
  -1.800  -0.1214   0.02423   0.01450   0.0027   1.0000   0.9540
  -1.700  -0.0867   0.02390   0.01411  -0.0021   1.0000   0.9647
  -1.600  -0.0548   0.02354   0.01369  -0.0066   1.0000   0.9756
  -1.500  -0.0223   0.02312   0.01323  -0.0113   1.0000   0.9863
  -1.400   0.0112   0.02265   0.01271  -0.0163   1.0000   0.9966
  -1.300   0.0245   0.02232   0.01237  -0.0178   1.0000   1.0000
  -1.200   0.0264   0.02208   0.01215  -0.0171   1.0000   1.0000
  -1.000   0.0285   0.02168   0.01178  -0.0155   1.0000   1.0000
  -0.900   0.0286   0.02151   0.01162  -0.0145   1.0000   1.0000
  -0.800   0.0280   0.02135   0.01148  -0.0133   1.0000   1.0000
  -0.700   0.0269   0.02121   0.01136  -0.0121   1.0000   1.0000
  -0.600   0.0251   0.02110   0.01126  -0.0107   1.0000   1.0000
  -0.500   0.0225   0.02100   0.01117  -0.0092   1.0000   1.0000
  -0.400   0.0191   0.02092   0.01111  -0.0075   1.0000   1.0000
  -0.300   0.0151   0.02086   0.01105  -0.0058   1.0000   1.0000
  -0.200   0.0104   0.02081   0.01102  -0.0039   1.0000   1.0000
   0.000   0.0000   0.02078   0.01099  -0.0000   1.0000   1.0000
   0.100  -0.0053   0.02079   0.01100   0.0020   1.0000   1.0000
   0.200  -0.0104   0.02081   0.01102   0.0039   1.0000   1.0000
   0.300  -0.0151   0.02085   0.01105   0.0058   1.0000   1.0000
   0.400  -0.0191   0.02092   0.01110   0.0075   1.0000   1.0000
   0.500  -0.0225   0.02100   0.01117   0.0092   1.0000   1.0000
   0.600  -0.0250   0.02109   0.01126   0.0107   1.0000   1.0000
   0.700  -0.0269   0.02121   0.01136   0.0121   1.0000   1.0000
   0.800  -0.0280   0.02135   0.01148   0.0133   1.0000   1.0000
   1.000  -0.0285   0.02168   0.01177   0.0155   1.0000   1.0000
   1.100  -0.0278   0.02187   0.01195   0.0164   1.0000   1.0000
   1.200  -0.0264   0.02208   0.01215   0.0171   1.0000   1.0000
   1.300  -0.0245   0.02231   0.01237   0.0178   1.0000   1.0000
   1.400  -0.0113   0.02264   0.01270   0.0163   0.9966   1.0000
   1.500   0.0223   0.02312   0.01322   0.0113   0.9863   1.0000
   1.600   0.0547   0.02353   0.01368   0.0066   0.9756   1.0000
   1.700   0.0867   0.02390   0.01411   0.0021   0.9647   1.0000
   1.800   0.1214   0.02423   0.01450  -0.0027   0.9540   1.0000
   2.000   0.1829   0.02463   0.01505  -0.0106   0.9296   1.0000
   2.100   0.2153   0.02475   0.01526  -0.0147   0.9175   1.0000
   2.200   0.2584   0.02473   0.01537  -0.0204   0.9061   1.0000
   2.300   0.2954   0.02463   0.01538  -0.0248   0.8932   1.0000
   2.400   0.3225   0.02453   0.01538  -0.0274   0.8794   1.0000
   2.500   0.3498   0.02437   0.01531  -0.0298   0.8657   1.0000
   2.600   0.3766   0.02414   0.01516  -0.0318   0.8522   1.0000
   2.700   0.4025   0.02383   0.01494  -0.0335   0.8389   1.0000
   2.800   0.4232   0.02357   0.01473  -0.0342   0.8252   1.0000
   3.000   0.4489   0.02335   0.01459  -0.0333   0.7957   1.0000
   3.100   0.4607   0.02324   0.01450  -0.0325   0.7811   1.0000
   3.200   0.4720   0.02312   0.01439  -0.0316   0.7667   1.0000
   3.300   0.4829   0.02300   0.01428  -0.0306   0.7525   1.0000
   3.400   0.4934   0.02288   0.01414  -0.0295   0.7383   1.0000
   3.500   0.5035   0.02276   0.01401  -0.0283   0.7240   1.0000
   3.600   0.5114   0.02276   0.01401  -0.0270   0.7085   1.0000
   3.700   0.5193   0.02277   0.01400  -0.0257   0.6929   1.0000
   3.800   0.5272   0.02279   0.01400  -0.0244   0.6772   1.0000
   4.000   0.5429   0.02286   0.01400  -0.0218   0.6454   1.0000
   4.100   0.5507   0.02291   0.01401  -0.0205   0.6292   1.0000
   4.200   0.5584   0.02298   0.01403  -0.0192   0.6127   1.0000
   4.300   0.5662   0.02307   0.01406  -0.0180   0.5961   1.0000
   4.400   0.5738   0.02317   0.01412  -0.0167   0.5793   1.0000
   4.500   0.5814   0.02328   0.01417  -0.0155   0.5622   1.0000
   4.600   0.5890   0.02342   0.01424  -0.0143   0.5450   1.0000
   4.700   0.5966   0.02357   0.01431  -0.0132   0.5276   1.0000
   4.800   0.6041   0.02374   0.01439  -0.0120   0.5100   1.0000
   5.000   0.6191   0.02415   0.01461  -0.0098   0.4749   1.0000
   5.100   0.6266   0.02438   0.01473  -0.0087   0.4573   1.0000
   5.200   0.6340   0.02464   0.01488  -0.0077   0.4399   1.0000
   5.300   0.6409   0.02495   0.01514  -0.0067   0.4221   1.0000
   5.400   0.6479   0.02527   0.01538  -0.0057   0.4047   1.0000
   5.500   0.6551   0.02562   0.01564  -0.0047   0.3879   1.0000
   5.600   0.6623   0.02598   0.01591  -0.0038   0.3717   1.0000
   5.700   0.6697   0.02636   0.01618  -0.0029   0.3561   1.0000
   5.800   0.6775   0.02676   0.01646  -0.0021   0.3415   1.0000
   6.000   0.6914   0.02768   0.01733  -0.0004   0.3130   1.0000
   6.100   0.6987   0.02820   0.01782   0.0003   0.3003   1.0000
   6.200   0.7067   0.02870   0.01825   0.0010   0.2889   1.0000
   6.300   0.7149   0.02917   0.01860   0.0017   0.2779   1.0000
   6.400   0.7217   0.02977   0.01929   0.0025   0.2671   1.0000
   6.500   0.7302   0.03035   0.01975   0.0030   0.2582   1.0000
   6.600   0.7375   0.03093   0.02037   0.0037   0.2488   1.0000
   6.700   0.7454   0.03158   0.02100   0.0043   0.2407   1.0000
   6.800   0.7531   0.03218   0.02162   0.0050   0.2328   1.0000
   7.000   0.7682   0.03360   0.02311   0.0062   0.2191   1.0000
   7.100   0.7783   0.03422   0.02350   0.0065   0.2130   1.0000
   7.200   0.7832   0.03512   0.02472   0.0074   0.2074   1.0000
   7.300   0.7910   0.03583   0.02545   0.0079   0.2020   1.0000
   7.400   0.8007   0.03658   0.02603   0.0082   0.1971   1.0000
   7.500   0.8047   0.03759   0.02735   0.0091   0.1927   1.0000
   7.600   0.8113   0.03842   0.02828   0.0098   0.1882   1.0000
   7.700   0.8207   0.03912   0.02889   0.0101   0.1840   1.0000
   7.800   0.8273   0.04021   0.03003   0.0107   0.1808   1.0000
   8.000   0.8345   0.04249   0.03276   0.0124   0.1745   1.0000
   8.100   0.8417   0.04331   0.03361   0.0129   0.1711   1.0000
   8.200   0.8524   0.04408   0.03422   0.0130   0.1678   1.0000
   8.300   0.8558   0.04548   0.03578   0.0138   0.1659   1.0000
   8.400   0.8562   0.04697   0.03756   0.0148   0.1645   1.0000
   8.500   0.8565   0.04849   0.03932   0.0156   0.1630   1.0000
   8.600   0.8568   0.05001   0.04104   0.0165   0.1614   1.0000
   8.700   0.8573   0.05150   0.04270   0.0172   0.1598   1.0000
   8.800   0.8583   0.05291   0.04424   0.0179   0.1582   1.0000
   9.000   0.8685   0.05514   0.04652   0.0189   0.1543   1.0000
   9.100   0.8838   0.05615   0.04729   0.0187   0.1519   1.0000
   9.200   0.8811   0.05798   0.04932   0.0195   0.1516   1.0000
   9.300   0.8772   0.05988   0.05141   0.0202   0.1515   1.0000
   9.400   0.8725   0.06185   0.05354   0.0209   0.1514   1.0000
   9.500   0.8674   0.06387   0.05570   0.0214   0.1513   1.0000
   9.600   0.8619   0.06592   0.05788   0.0219   0.1514   1.0000
   9.700   0.8560   0.06802   0.06008   0.0223   0.1515   1.0000
   9.800   0.8501   0.07014   0.06230   0.0226   0.1516   1.0000
  10.000   0.8387   0.07447   0.06675   0.0229   0.1519   1.0000
  11.000   0.4487   0.12526   0.11782  -0.0066   0.3239   1.0000
  11.100   0.4355   0.12533   0.11787  -0.0066   0.3206   1.0000
  11.200   0.4342   0.12624   0.11877  -0.0065   0.3160   1.0000
  11.300   0.4406   0.12784   0.12039  -0.0065   0.3125   1.0000
  11.400   0.4690   0.13208   0.12468  -0.0065   0.3088   1.0000
  11.500   0.4529   0.13186   0.12443  -0.0067   0.3078   1.0000
  11.600   0.4397   0.13158   0.12413  -0.0068   0.3050   1.0000
  11.700   0.4372   0.13226   0.12480  -0.0068   0.3005   1.0000
  11.800   0.4461   0.13400   0.12656  -0.0067   0.2958   1.0000
  12.000   0.6289   0.14855   0.14076  -0.0225   0.2769   1.0000
  12.100   0.6191   0.14913   0.14128  -0.0235   0.2757   1.0000
  12.200   0.6060   0.14895   0.14106  -0.0245   0.2728   1.0000
  12.300   0.6045   0.14983   0.14193  -0.0249   0.2683   1.0000
  12.400   0.6121   0.15155   0.14367  -0.0248   0.2643   1.0000
  12.500   0.6310   0.15497   0.14715  -0.0241   0.2614   1.0000
  12.600   0.6336   0.15705   0.14922  -0.0245   0.2601   1.0000
  12.700   0.6185   0.15642   0.14852  -0.0258   0.2580   1.0000
  12.800   0.6142   0.15696   0.14904  -0.0265   0.2542   1.0000
  13.000   0.6261   0.16030   0.15242  -0.0265   0.2475   1.0000
  13.100   0.6510   0.16532   0.15750  -0.0255   0.2445   1.0000
  13.200   0.6370   0.16464   0.15676  -0.0269   0.2435   1.0000
  13.300   0.6271   0.16430   0.15639  -0.0280   0.2408   1.0000
  13.400   0.6265   0.16514   0.15723  -0.0285   0.2369   1.0000
  13.500   0.6324   0.16672   0.15881  -0.0285   0.2331   1.0000
  13.600   0.6512   0.17047   0.16262  -0.0277   0.2297   1.0000
  13.700   0.6576   0.17320   0.16534  -0.0279   0.2284   1.0000
  13.800   0.6450   0.17224   0.16434  -0.0293   0.2271   1.0000
  14.000   0.6402   0.17333   0.16540  -0.0309   0.2209   1.0000
  14.100   0.6447   0.17483   0.16691  -0.0311   0.2181   1.0000
  14.200   0.6532   0.17700   0.16910  -0.0309   0.2156   1.0000
  14.300   0.6804   0.18355   0.17572  -0.0296   0.2131   1.0000
  14.400   0.6684   0.18241   0.17452  -0.0311   0.2125   1.0000
  14.500   0.6587   0.18151   0.17358  -0.0326   0.2110   1.0000
  14.600   0.6555   0.18174   0.17380  -0.0337   0.2079   1.0000
  14.700   0.6576   0.18284   0.17489  -0.0341   0.2046   1.0000
  14.800   0.6635   0.18448   0.17657  -0.0342   0.2015   1.0000
  15.000   0.4670   0.16495   0.15764  -0.0109   0.2111   1.0000
  15.100   0.4625   0.16465   0.15734  -0.0114   0.2086   1.0000
  15.200   0.4623   0.16520   0.15791  -0.0117   0.2058   1.0000
  15.300   0.4646   0.16621   0.15892  -0.0119   0.2032   1.0000
  15.400   0.4700   0.16781   0.16054  -0.0119   0.2007   1.0000
  15.500   0.4860   0.17220   0.16495  -0.0116   0.1982   1.0000
  15.600   0.4893   0.17421   0.16695  -0.0119   0.1972   1.0000
  15.700   0.4796   0.17254   0.16527  -0.0125   0.1964   1.0000
  15.800   0.4731   0.17165   0.16437  -0.0132   0.1946   1.0000
  16.000   0.4725   0.17259   0.16533  -0.0139   0.1890   1.0000
  16.100   0.4765   0.17389   0.16663  -0.0140   0.1862   1.0000
  16.200   0.4853   0.17639   0.16916  -0.0139   0.1838   1.0000
  16.300   0.5049   0.18287   0.17565  -0.0135   0.1821   1.0000
  16.400   0.4956   0.18104   0.17382  -0.0142   0.1817   1.0000
  16.500   0.4880   0.17967   0.17244  -0.0150   0.1808   1.0000
  16.600   0.4833   0.17911   0.17188  -0.0157   0.1792   1.0000
  16.700   0.4821   0.17939   0.17217  -0.0162   0.1770   1.0000
  16.800   0.4830   0.18013   0.17292  -0.0166   0.1748   1.0000
  18.000   0.5081   0.19327   0.18614  -0.0202   0.1538   1.0000
  18.100   0.5213   0.19820   0.19111  -0.0198   0.1523   1.0000
  18.200   0.5234   0.19990   0.19278  -0.0203   0.1518   1.0000
  18.300   0.5174   0.19852   0.19140  -0.0211   0.1513   1.0000
  18.400   0.5128   0.19764   0.19053  -0.0219   0.1506   1.0000
  18.500   0.5104   0.19744   0.19032  -0.0226   0.1493   1.0000
  18.600   0.5100   0.19785   0.19074  -0.0232   0.1476   1.0000
  18.700   0.5108   0.19860   0.19150  -0.0237   0.1458   1.0000
  18.800   0.5124   0.19953   0.19244  -0.0241   0.1440   1.0000
  19.000   0.5182   0.20199   0.19492  -0.0246   0.1407   1.0000
  19.100   0.5237   0.20404   0.19698  -0.0246   0.1391   1.0000
  19.200   0.5375   0.20966   0.20263  -0.0241   0.1375   1.0000
  19.300   0.5375   0.21057   0.20351  -0.0247   0.1371   1.0000
  19.400   0.5324   0.20924   0.20219  -0.0255   0.1367   1.0000
  19.500   0.5285   0.20843   0.20138  -0.0264   0.1359   1.0000
  19.600   0.5267   0.20831   0.20126  -0.0272   0.1346   1.0000
  19.700   0.5266   0.20879   0.20174  -0.0278   0.1329   1.0000
  19.800   0.5277   0.20958   0.20255  -0.0283   0.1312   1.0000
