  
       XFOIL         Version 6.99
  
 Calculated polar for: NACA 0012                                       
  
 1 1 Reynolds number fixed          Mach number fixed         
  
 xtrf =   1.000 (top)        1.000 (bottom)  
 Mach =   0.000     Re =     0.850 e 6     Ncrit =   9.000
  
   alpha    CL        CD       CDp       CM     Top_Xtr  Bot_Xtr
  ------ -------- --------- --------- -------- -------- --------
 -20.000  -1.0921   0.15206   0.14956   0.0257   1.0000   0.0141
 -19.900  -1.0991   0.14885   0.14631   0.0238   1.0000   0.0141
 -19.800  -1.1062   0.14561   0.14303   0.0219   1.0000   0.0142
 -19.700  -1.1136   0.14237   0.13975   0.0200   1.0000   0.0142
 -19.600  -1.1199   0.13939   0.13674   0.0183   1.0000   0.0142
 -19.500  -1.1275   0.13616   0.13346   0.0165   1.0000   0.0143
 -19.400  -1.1336   0.13331   0.13058   0.0149   1.0000   0.0143
 -19.300  -1.1405   0.13030   0.12753   0.0132   1.0000   0.0143
 -19.200  -1.1475   0.12731   0.12450   0.0116   1.0000   0.0144
 -19.000  -1.1617   0.12138   0.11849   0.0083   1.0000   0.0144
 -18.900  -1.1682   0.11854   0.11562   0.0068   1.0000   0.0144
 -18.800  -1.1758   0.11552   0.11255   0.0052   1.0000   0.0144
 -18.700  -1.1823   0.11273   0.10973   0.0037   1.0000   0.0145
 -18.600  -1.1901   0.10972   0.10667   0.0021   1.0000   0.0145
 -18.500  -1.1969   0.10694   0.10385   0.0007   1.0000   0.0145
 -18.400  -1.2048   0.10397   0.10084  -0.0008   1.0000   0.0145
 -18.300  -1.2121   0.10113   0.09795  -0.0023   1.0000   0.0145
 -18.200  -1.2194   0.09830   0.09508  -0.0038   1.0000   0.0146
 -18.000  -1.2342   0.09266   0.08935  -0.0067   1.0000   0.0146
 -17.900  -1.2418   0.08985   0.08649  -0.0081   1.0000   0.0146
 -17.800  -1.2491   0.08710   0.08370  -0.0095   1.0000   0.0147
 -17.700  -1.2560   0.08446   0.08101  -0.0109   1.0000   0.0147
 -17.600  -1.2631   0.08178   0.07829  -0.0122   1.0000   0.0147
 -17.500  -1.2701   0.07915   0.07561  -0.0136   1.0000   0.0147
 -17.400  -1.2767   0.07659   0.07300  -0.0149   1.0000   0.0147
 -17.300  -1.2832   0.07410   0.07046  -0.0161   1.0000   0.0148
 -17.200  -1.2892   0.07170   0.06801  -0.0173   1.0000   0.0148
 -17.000  -1.3005   0.06705   0.06327  -0.0197   1.0000   0.0149
 -16.900  -1.3057   0.06482   0.06099  -0.0208   1.0000   0.0149
 -16.800  -1.3104   0.06267   0.05880  -0.0219   1.0000   0.0149
 -16.700  -1.3147   0.06061   0.05669  -0.0229   1.0000   0.0150
 -16.600  -1.3185   0.05863   0.05467  -0.0239   1.0000   0.0151
 -16.500  -1.3220   0.05672   0.05271  -0.0248   1.0000   0.0151
 -16.400  -1.3251   0.05488   0.05082  -0.0257   1.0000   0.0152
 -16.300  -1.3279   0.05309   0.04899  -0.0265   1.0000   0.0152
 -16.200  -1.3300   0.05142   0.04728  -0.0273   1.0000   0.0153
 -15.900  -1.3347   0.04680   0.04252  -0.0293   1.0000   0.0155
 -15.800  -1.3357   0.04537   0.04104  -0.0298   1.0000   0.0156
 -15.700  -1.3362   0.04404   0.03967  -0.0303   1.0000   0.0157
 -15.600  -1.3365   0.04276   0.03834  -0.0308   1.0000   0.0157
 -15.500  -1.3364   0.04155   0.03709  -0.0311   1.0000   0.0158
 -15.400  -1.3360   0.04041   0.03590  -0.0314   1.0000   0.0159
 -15.300  -1.3358   0.03928   0.03472  -0.0317   1.0000   0.0160
 -15.200  -1.3350   0.03823   0.03362  -0.0319   1.0000   0.0161
 -15.000  -1.3327   0.03630   0.03160  -0.0321   1.0000   0.0163
 -14.900  -1.3310   0.03543   0.03068  -0.0321   1.0000   0.0164
 -14.800  -1.3291   0.03460   0.02982  -0.0320   1.0000   0.0164
 -14.700  -1.3273   0.03380   0.02897  -0.0319   1.0000   0.0165
 -14.600  -1.3249   0.03306   0.02818  -0.0317   1.0000   0.0166
 -14.500  -1.3222   0.03237   0.02745  -0.0315   1.0000   0.0167
 -14.400  -1.3192   0.03173   0.02677  -0.0313   1.0000   0.0167
 -14.300  -1.3187   0.03090   0.02589  -0.0309   1.0000   0.0168
 -14.200  -1.3218   0.02980   0.02474  -0.0303   1.0000   0.0169
 -14.000  -1.3231   0.02812   0.02299  -0.0289   1.0000   0.0172
 -13.900  -1.3222   0.02744   0.02228  -0.0282   1.0000   0.0173
 -13.800  -1.3203   0.02686   0.02167  -0.0275   1.0000   0.0175
 -13.700  -1.3176   0.02634   0.02113  -0.0269   1.0000   0.0176
 -13.600  -1.3144   0.02588   0.02064  -0.0262   1.0000   0.0177
 -13.500  -1.3106   0.02546   0.02020  -0.0255   1.0000   0.0179
 -13.400  -1.3067   0.02506   0.01977  -0.0248   1.0000   0.0180
 -13.300  -1.3023   0.02470   0.01939  -0.0241   1.0000   0.0182
 -13.200  -1.2980   0.02434   0.01900  -0.0234   1.0000   0.0183
 -13.000  -1.2889   0.02367   0.01829  -0.0219   1.0000   0.0186
 -12.900  -1.2842   0.02335   0.01794  -0.0211   1.0000   0.0188
 -12.800  -1.2793   0.02305   0.01762  -0.0203   1.0000   0.0190
 -12.700  -1.2743   0.02276   0.01729  -0.0195   1.0000   0.0191
 -12.600  -1.2687   0.02247   0.01698  -0.0188   1.0000   0.0193
 -12.500  -1.2624   0.02219   0.01667  -0.0182   1.0000   0.0195
 -12.400  -1.2557   0.02193   0.01637  -0.0177   1.0000   0.0197
 -12.300  -1.2486   0.02168   0.01609  -0.0172   1.0000   0.0198
 -12.200  -1.2411   0.02145   0.01583  -0.0167   1.0000   0.0200
 -12.000  -1.2302   0.02067   0.01499  -0.0153   1.0000   0.0205
 -11.900  -1.2253   0.02023   0.01453  -0.0146   1.0000   0.0208
 -11.800  -1.2188   0.01990   0.01419  -0.0140   1.0000   0.0211
 -11.700  -1.2115   0.01963   0.01391  -0.0135   1.0000   0.0213
 -11.600  -1.2038   0.01939   0.01366  -0.0131   1.0000   0.0216
 -11.500  -1.1958   0.01917   0.01342  -0.0127   1.0000   0.0219
 -11.400  -1.1878   0.01895   0.01319  -0.0123   1.0000   0.0222
 -11.300  -1.1797   0.01874   0.01296  -0.0119   1.0000   0.0225
 -11.200  -1.1715   0.01852   0.01272  -0.0115   1.0000   0.0227
 -11.000  -1.1549   0.01811   0.01226  -0.0108   1.0000   0.0233
 -10.900  -1.1463   0.01792   0.01205  -0.0104   1.0000   0.0236
 -10.800  -1.1376   0.01775   0.01185  -0.0101   1.0000   0.0238
 -10.700  -1.1287   0.01759   0.01167  -0.0097   1.0000   0.0240
 -10.600  -1.1230   0.01713   0.01119  -0.0090   1.0000   0.0245
 -10.500  -1.1157   0.01682   0.01088  -0.0084   1.0000   0.0250
 -10.400  -1.1077   0.01659   0.01063  -0.0080   1.0000   0.0254
 -10.300  -1.0992   0.01638   0.01042  -0.0076   1.0000   0.0258
 -10.200  -1.0905   0.01620   0.01024  -0.0073   1.0000   0.0261
 -10.000  -1.0729   0.01587   0.00988  -0.0065   1.0000   0.0270
  -9.900  -1.0640   0.01572   0.00970  -0.0062   1.0000   0.0275
  -9.800  -1.0550   0.01557   0.00955  -0.0058   1.0000   0.0279
  -9.700  -1.0459   0.01545   0.00940  -0.0055   1.0000   0.0282
  -9.600  -1.0378   0.01523   0.00916  -0.0050   1.0000   0.0287
  -9.500  -1.0305   0.01493   0.00886  -0.0044   1.0000   0.0294
  -9.400  -1.0224   0.01473   0.00866  -0.0039   1.0000   0.0301
  -9.300  -1.0139   0.01456   0.00849  -0.0035   1.0000   0.0306
  -9.200  -1.0053   0.01441   0.00834  -0.0030   1.0000   0.0312
  -9.000  -0.9881   0.01413   0.00804  -0.0021   1.0000   0.0323
  -8.900  -0.9793   0.01401   0.00790  -0.0017   1.0000   0.0329
  -8.800  -0.9704   0.01390   0.00777  -0.0013   1.0000   0.0333
  -8.700  -0.9627   0.01368   0.00754  -0.0007   1.0000   0.0341
  -8.600  -0.9550   0.01346   0.00733  -0.0001   1.0000   0.0351
  -8.500  -0.9467   0.01330   0.00718   0.0004   1.0000   0.0359
  -8.400  -0.9383   0.01317   0.00705   0.0009   1.0000   0.0367
  -8.300  -0.9296   0.01305   0.00692   0.0014   1.0000   0.0376
  -8.200  -0.9210   0.01294   0.00680   0.0018   1.0000   0.0384
  -8.000  -0.9042   0.01268   0.00652   0.0029   1.0000   0.0401
  -7.900  -0.8964   0.01249   0.00634   0.0035   1.0000   0.0414
  -7.800  -0.8882   0.01235   0.00621   0.0040   1.0000   0.0425
  -7.700  -0.8798   0.01223   0.00610   0.0045   1.0000   0.0437
  -7.600  -0.8713   0.01213   0.00599   0.0050   1.0000   0.0447
  -7.500  -0.8626   0.01204   0.00588   0.0055   1.0000   0.0456
  -7.400  -0.8545   0.01190   0.00574   0.0061   1.0000   0.0470
  -7.300  -0.8465   0.01174   0.00559   0.0067   1.0000   0.0488
  -7.200  -0.8383   0.01161   0.00548   0.0072   1.0000   0.0504
  -7.000  -0.8212   0.01143   0.00529   0.0082   1.0000   0.0533
  -6.900  -0.8129   0.01130   0.00517   0.0087   1.0000   0.0552
  -6.800  -0.8048   0.01116   0.00505   0.0093   1.0000   0.0576
  -6.700  -0.7964   0.01105   0.00496   0.0098   1.0000   0.0597
  -6.600  -0.7878   0.01096   0.00487   0.0103   1.0000   0.0616
  -6.500  -0.7785   0.01087   0.00477   0.0106   0.9999   0.0636
  -6.400  -0.7648   0.01070   0.00464   0.0100   0.9993   0.0675
  -6.300  -0.7509   0.01058   0.00454   0.0093   0.9986   0.0710
  -6.200  -0.7369   0.01046   0.00443   0.0087   0.9979   0.0746
  -6.000  -0.7090   0.01020   0.00422   0.0073   0.9964   0.0835
  -5.900  -0.6950   0.01005   0.00411   0.0066   0.9956   0.0891
  -5.800  -0.6808   0.00993   0.00401   0.0059   0.9950   0.0945
  -5.700  -0.6665   0.00980   0.00392   0.0051   0.9943   0.1006
  -5.600  -0.6521   0.00967   0.00382   0.0044   0.9938   0.1073
  -5.500  -0.6390   0.00953   0.00372   0.0039   0.9927   0.1142
  -5.400  -0.6257   0.00941   0.00363   0.0034   0.9915   0.1214
  -5.300  -0.6123   0.00927   0.00354   0.0028   0.9903   0.1293
  -5.200  -0.5985   0.00915   0.00345   0.0022   0.9892   0.1370
  -5.000  -0.5706   0.00887   0.00327   0.0009   0.9871   0.1562
  -4.900  -0.5563   0.00875   0.00319   0.0001   0.9862   0.1661
  -4.800  -0.5420   0.00860   0.00310  -0.0006   0.9854   0.1770
  -4.700  -0.5276   0.00847   0.00302  -0.0014   0.9846   0.1878
  -4.600  -0.5128   0.00835   0.00295  -0.0022   0.9839   0.1989
  -4.500  -0.4981   0.00821   0.00286  -0.0031   0.9833   0.2112
  -4.400  -0.4844   0.00808   0.00279  -0.0037   0.9822   0.2231
  -4.300  -0.4726   0.00796   0.00272  -0.0038   0.9797   0.2339
  -4.000  -0.4336   0.00760   0.00251  -0.0051   0.9739   0.2701
  -3.900  -0.4203   0.00749   0.00245  -0.0055   0.9722   0.2823
  -3.800  -0.4069   0.00738   0.00238  -0.0060   0.9706   0.2943
  -3.700  -0.3958   0.00728   0.00233  -0.0060   0.9673   0.3062
  -3.600  -0.3849   0.00717   0.00227  -0.0059   0.9637   0.3178
  -3.500  -0.3733   0.00708   0.00222  -0.0060   0.9605   0.3293
  -3.400  -0.3612   0.00699   0.00216  -0.0062   0.9577   0.3411
  -3.300  -0.3497   0.00689   0.00211  -0.0062   0.9547   0.3532
  -3.200  -0.3396   0.00680   0.00206  -0.0059   0.9499   0.3640
  -3.000  -0.3177   0.00664   0.00197  -0.0057   0.9419   0.3872
  -2.900  -0.3072   0.00655   0.00192  -0.0055   0.9373   0.3986
  -2.800  -0.2967   0.00649   0.00188  -0.0053   0.9321   0.4093
  -2.700  -0.2861   0.00641   0.00184  -0.0051   0.9273   0.4211
  -2.600  -0.2756   0.00634   0.00180  -0.0049   0.9225   0.4322
  -2.500  -0.2651   0.00627   0.00176  -0.0047   0.9166   0.4430
  -2.400  -0.2546   0.00621   0.00172  -0.0045   0.9110   0.4546
  -2.300  -0.2441   0.00615   0.00168  -0.0043   0.9055   0.4658
  -2.200  -0.2336   0.00609   0.00165  -0.0041   0.8989   0.4765
  -2.000  -0.2125   0.00598   0.00159  -0.0037   0.8862   0.4991
  -1.900  -0.2020   0.00593   0.00156  -0.0035   0.8791   0.5098
  -1.800  -0.1914   0.00589   0.00153  -0.0033   0.8725   0.5210
  -1.700  -0.1808   0.00584   0.00150  -0.0031   0.8650   0.5318
  -1.600  -0.1703   0.00581   0.00147  -0.0029   0.8578   0.5427
  -1.500  -0.1596   0.00577   0.00145  -0.0027   0.8498   0.5539
  -1.400  -0.1491   0.00573   0.00142  -0.0025   0.8420   0.5645
  -1.300  -0.1383   0.00570   0.00140  -0.0023   0.8338   0.5756
  -1.200  -0.1278   0.00568   0.00138  -0.0021   0.8255   0.5868
  -1.000  -0.1065   0.00563   0.00135  -0.0017   0.8080   0.6080
  -0.900  -0.0958   0.00560   0.00133  -0.0016   0.7992   0.6189
  -0.800  -0.0853   0.00559   0.00132  -0.0014   0.7903   0.6289
  -0.600  -0.0640   0.00555   0.00130  -0.0010   0.7718   0.6509
  -0.500  -0.0532   0.00554   0.00129  -0.0009   0.7619   0.6608
  -0.400  -0.0426   0.00553   0.00128  -0.0007   0.7525   0.6717
  -0.300  -0.0320   0.00552   0.00127  -0.0005   0.7425   0.6820
  -0.200  -0.0212   0.00552   0.00127  -0.0004   0.7328   0.6920
   0.000   0.0000   0.00551   0.00127  -0.0000   0.7127   0.7124
   0.100   0.0107   0.00552   0.00127   0.0002   0.7025   0.7229
   0.200   0.0212   0.00552   0.00127   0.0004   0.6921   0.7328
   0.300   0.0320   0.00552   0.00127   0.0005   0.6819   0.7426
   0.400   0.0426   0.00553   0.00128   0.0007   0.6716   0.7525
   0.500   0.0532   0.00554   0.00129   0.0009   0.6606   0.7619
   0.600   0.0640   0.00555   0.00130   0.0010   0.6506   0.7717
   0.800   0.0853   0.00558   0.00132   0.0014   0.6294   0.7903
   1.000   0.1065   0.00563   0.00135   0.0017   0.6080   0.8082
   1.100   0.1171   0.00564   0.00137   0.0019   0.5971   0.8169
   1.200   0.1278   0.00568   0.00138   0.0021   0.5866   0.8254
   1.300   0.1383   0.00570   0.00140   0.0023   0.5754   0.8337
   1.400   0.1491   0.00573   0.00142   0.0025   0.5648   0.8419
   1.500   0.1596   0.00577   0.00145   0.0027   0.5543   0.8498
   1.600   0.1703   0.00581   0.00147   0.0028   0.5427   0.8577
   1.700   0.1808   0.00584   0.00150   0.0031   0.5322   0.8650
   1.800   0.1914   0.00589   0.00153   0.0033   0.5212   0.8726
   2.000   0.2125   0.00598   0.00159   0.0037   0.4988   0.8862
   2.100   0.2231   0.00604   0.00162   0.0038   0.4881   0.8928
   2.200   0.2336   0.00609   0.00165   0.0041   0.4764   0.8990
   2.300   0.2442   0.00615   0.00168   0.0043   0.4659   0.9054
   2.400   0.2546   0.00621   0.00172   0.0045   0.4548   0.9109
   2.500   0.2651   0.00627   0.00176   0.0047   0.4431   0.9166
   2.600   0.2756   0.00634   0.00180   0.0049   0.4324   0.9225
   2.700   0.2861   0.00641   0.00184   0.0051   0.4211   0.9273
   2.800   0.2967   0.00649   0.00188   0.0053   0.4093   0.9321
   3.000   0.3177   0.00664   0.00197   0.0057   0.3872   0.9419
   3.100   0.3288   0.00673   0.00202   0.0058   0.3751   0.9456
   3.200   0.3396   0.00680   0.00206   0.0059   0.3639   0.9499
   3.300   0.3497   0.00689   0.00211   0.0062   0.3532   0.9547
   3.400   0.3612   0.00699   0.00216   0.0061   0.3410   0.9577
   3.500   0.3733   0.00708   0.00222   0.0060   0.3293   0.9605
   3.600   0.3849   0.00717   0.00227   0.0059   0.3180   0.9637
   3.700   0.3958   0.00728   0.00233   0.0060   0.3064   0.9673
   3.800   0.4069   0.00738   0.00238   0.0060   0.2942   0.9706
   4.000   0.4336   0.00760   0.00251   0.0051   0.2701   0.9739
   4.100   0.4468   0.00773   0.00258   0.0046   0.2578   0.9757
   4.300   0.4726   0.00796   0.00272   0.0038   0.2339   0.9797
   4.400   0.4844   0.00808   0.00279   0.0037   0.2230   0.9822
   4.500   0.4981   0.00821   0.00286   0.0030   0.2113   0.9833
   4.600   0.5128   0.00835   0.00295   0.0022   0.1991   0.9839
   4.700   0.5276   0.00847   0.00302   0.0014   0.1878   0.9846
   4.800   0.5421   0.00860   0.00310   0.0006   0.1770   0.9854
   5.000   0.5706   0.00887   0.00327  -0.0009   0.1561   0.9871
   5.100   0.5847   0.00900   0.00336  -0.0016   0.1470   0.9881
   5.200   0.5984   0.00915   0.00345  -0.0022   0.1371   0.9892
   5.300   0.6123   0.00927   0.00354  -0.0028   0.1293   0.9903
   5.400   0.6257   0.00941   0.00363  -0.0034   0.1214   0.9915
   5.500   0.6390   0.00953   0.00372  -0.0039   0.1142   0.9927
   5.600   0.6522   0.00967   0.00382  -0.0044   0.1073   0.9938
   5.700   0.6666   0.00980   0.00392  -0.0052   0.1006   0.9944
   5.800   0.6808   0.00993   0.00401  -0.0059   0.0944   0.9950
   6.100   0.7232   0.01031   0.00431  -0.0080   0.0794   0.9971
   6.200   0.7370   0.01046   0.00443  -0.0087   0.0746   0.9979
   6.300   0.7510   0.01058   0.00453  -0.0093   0.0709   0.9986
   6.400   0.7649   0.01070   0.00464  -0.0100   0.0675   0.9993
   6.500   0.7786   0.01087   0.00477  -0.0106   0.0636   0.9999
   6.600   0.7877   0.01096   0.00487  -0.0103   0.0616   1.0000
   6.700   0.7963   0.01105   0.00496  -0.0098   0.0597   1.0000
   6.800   0.8047   0.01116   0.00505  -0.0093   0.0576   1.0000
   7.000   0.8211   0.01143   0.00529  -0.0082   0.0533   1.0000
   7.100   0.8297   0.01151   0.00538  -0.0077   0.0520   1.0000
   7.200   0.8382   0.01161   0.00548  -0.0072   0.0504   1.0000
   7.300   0.8465   0.01174   0.00559  -0.0067   0.0488   1.0000
   7.400   0.8544   0.01190   0.00574  -0.0061   0.0470   1.0000
   7.500   0.8626   0.01204   0.00588  -0.0055   0.0456   1.0000
   7.600   0.8712   0.01213   0.00598  -0.0050   0.0447   1.0000
   7.700   0.8797   0.01223   0.00609  -0.0045   0.0437   1.0000
   7.800   0.8881   0.01235   0.00621  -0.0040   0.0425   1.0000
   8.000   0.9042   0.01267   0.00651  -0.0029   0.0401   1.0000
   8.100   0.9121   0.01285   0.00669  -0.0023   0.0390   1.0000
   8.200   0.9209   0.01294   0.00680  -0.0018   0.0384   1.0000
   8.300   0.9296   0.01305   0.00692  -0.0014   0.0376   1.0000
   8.400   0.9382   0.01317   0.00704  -0.0009   0.0367   1.0000
   8.500   0.9467   0.01330   0.00718  -0.0004   0.0359   1.0000
   8.600   0.9550   0.01346   0.00733   0.0001   0.0350   1.0000
   8.700   0.9627   0.01368   0.00754   0.0007   0.0341   1.0000
   8.800   0.9704   0.01390   0.00777   0.0013   0.0333   1.0000
   9.000   0.9880   0.01413   0.00803   0.0022   0.0323   1.0000
   9.100   0.9967   0.01427   0.00818   0.0026   0.0318   1.0000
   9.200   1.0053   0.01441   0.00834   0.0030   0.0312   1.0000
   9.300   1.0140   0.01456   0.00849   0.0035   0.0306   1.0000
   9.400   1.0224   0.01473   0.00866   0.0039   0.0301   1.0000
   9.500   1.0306   0.01493   0.00886   0.0044   0.0294   1.0000
   9.600   1.0378   0.01523   0.00916   0.0050   0.0287   1.0000
   9.700   1.0459   0.01545   0.00940   0.0055   0.0282   1.0000
   9.800   1.0551   0.01558   0.00955   0.0058   0.0279   1.0000
  10.000   1.0730   0.01587   0.00988   0.0065   0.0270   1.0000
  10.100   1.0818   0.01603   0.01005   0.0069   0.0266   1.0000
  10.200   1.0906   0.01620   0.01024   0.0072   0.0261   1.0000
  10.300   1.0993   0.01638   0.01042   0.0076   0.0258   1.0000
  10.400   1.1077   0.01659   0.01063   0.0080   0.0254   1.0000
  10.500   1.1158   0.01682   0.01087   0.0084   0.0250   1.0000
  10.600   1.1231   0.01713   0.01119   0.0090   0.0245   1.0000
  10.700   1.1287   0.01759   0.01167   0.0097   0.0240   1.0000
  10.800   1.1377   0.01775   0.01185   0.0100   0.0238   1.0000
  11.000   1.1550   0.01811   0.01226   0.0107   0.0233   1.0000
  11.100   1.1634   0.01831   0.01248   0.0111   0.0230   1.0000
  11.200   1.1717   0.01852   0.01272   0.0115   0.0227   1.0000
  11.300   1.1798   0.01873   0.01295   0.0119   0.0224   1.0000
  11.400   1.1880   0.01895   0.01319   0.0123   0.0222   1.0000
  11.500   1.1960   0.01917   0.01342   0.0127   0.0219   1.0000
  11.600   1.2040   0.01939   0.01366   0.0131   0.0216   1.0000
  11.700   1.2117   0.01963   0.01391   0.0135   0.0213   1.0000
  11.800   1.2190   0.01990   0.01419   0.0140   0.0211   1.0000
  12.000   1.2304   0.02068   0.01499   0.0153   0.0204   1.0000
  12.100   1.2335   0.02125   0.01560   0.0163   0.0201   1.0000
  12.200   1.2414   0.02145   0.01583   0.0167   0.0200   1.0000
  12.300   1.2490   0.02167   0.01608   0.0171   0.0198   1.0000
  12.400   1.2561   0.02192   0.01636   0.0176   0.0197   1.0000
  12.500   1.2628   0.02219   0.01666   0.0181   0.0195   1.0000
  12.600   1.2691   0.02247   0.01698   0.0187   0.0193   1.0000
  12.700   1.2748   0.02276   0.01729   0.0194   0.0191   1.0000
  12.800   1.2799   0.02305   0.01761   0.0202   0.0190   1.0000
  13.000   1.2895   0.02367   0.01828   0.0218   0.0186   1.0000
  13.100   1.2942   0.02400   0.01864   0.0225   0.0185   1.0000
  13.200   1.2988   0.02433   0.01900   0.0233   0.0183   1.0000
  13.300   1.3032   0.02469   0.01937   0.0240   0.0181   1.0000
  13.400   1.3074   0.02506   0.01977   0.0247   0.0180   1.0000
  13.500   1.3114   0.02545   0.02019   0.0254   0.0179   1.0000
  13.600   1.3152   0.02588   0.02064   0.0260   0.0177   1.0000
  13.700   1.3185   0.02634   0.02113   0.0267   0.0176   1.0000
  13.800   1.3211   0.02686   0.02167   0.0274   0.0175   1.0000
  14.000   1.3240   0.02812   0.02299   0.0288   0.0172   1.0000
  14.100   1.3238   0.02891   0.02381   0.0295   0.0171   1.0000
  14.200   1.3222   0.02984   0.02479   0.0301   0.0169   1.0000
  14.300   1.3191   0.03095   0.02595   0.0308   0.0168   1.0000
  14.400   1.3208   0.03168   0.02672   0.0311   0.0167   1.0000
  14.500   1.3237   0.03233   0.02741   0.0314   0.0166   1.0000
  14.600   1.3264   0.03302   0.02814   0.0315   0.0166   1.0000
  14.700   1.3287   0.03376   0.02893   0.0317   0.0165   1.0000
  14.800   1.3308   0.03455   0.02976   0.0318   0.0164   1.0000
  15.000   1.3340   0.03629   0.03159   0.0319   0.0163   1.0000
  15.100   1.3354   0.03721   0.03256   0.0318   0.0162   1.0000
  15.200   1.3363   0.03822   0.03361   0.0317   0.0161   1.0000
  15.300   1.3371   0.03927   0.03471   0.0315   0.0160   1.0000
  15.400   1.3376   0.04037   0.03586   0.0312   0.0159   1.0000
  15.500   1.3380   0.04152   0.03705   0.0309   0.0158   1.0000
  15.600   1.3378   0.04275   0.03833   0.0306   0.0157   1.0000
  15.700   1.3375   0.04404   0.03967   0.0301   0.0157   1.0000
  15.800   1.3369   0.04540   0.04107   0.0296   0.0156   1.0000
  16.000   1.3347   0.04829   0.04406   0.0284   0.0154   1.0000
  16.100   1.3333   0.04982   0.04562   0.0278   0.0153   1.0000
  16.200   1.3316   0.05140   0.04726   0.0270   0.0153   1.0000
  16.300   1.3294   0.05309   0.04899   0.0263   0.0152   1.0000
  16.400   1.3271   0.05482   0.05076   0.0254   0.0151   1.0000
  16.500   1.3246   0.05660   0.05259   0.0245   0.0151   1.0000
  16.600   1.3206   0.05857   0.05461   0.0236   0.0150   1.0000
  16.700   1.3169   0.06054   0.05662   0.0226   0.0150   1.0000
  16.800   1.3126   0.06260   0.05873   0.0216   0.0149   1.0000
  17.000   1.3027   0.06698   0.06320   0.0194   0.0149   1.0000
  17.100   1.2974   0.06926   0.06553   0.0182   0.0148   1.0000
  17.200   1.2917   0.07161   0.06792   0.0171   0.0148   1.0000
  17.300   1.2855   0.07403   0.07039   0.0158   0.0148   1.0000
  17.400   1.2792   0.07650   0.07291   0.0146   0.0147   1.0000
  17.500   1.2726   0.07906   0.07551   0.0133   0.0147   1.0000
  17.600   1.2657   0.08169   0.07819   0.0119   0.0147   1.0000
  17.700   1.2587   0.08435   0.08090   0.0106   0.0147   1.0000
  17.800   1.2516   0.08704   0.08363   0.0092   0.0146   1.0000
  18.000   1.2369   0.09255   0.08924   0.0064   0.0146   1.0000
  18.100   1.2296   0.09533   0.09206   0.0050   0.0146   1.0000
  18.200   1.2219   0.09823   0.09501   0.0035   0.0146   1.0000
  18.300   1.2146   0.10107   0.09789   0.0020   0.0145   1.0000
  18.400   1.2074   0.10391   0.10077   0.0005   0.0145   1.0000
  18.500   1.1996   0.10686   0.10377  -0.0010   0.0145   1.0000
  18.600   1.1926   0.10966   0.10661  -0.0025   0.0145   1.0000
  18.700   1.1850   0.11265   0.10964  -0.0041   0.0145   1.0000
  18.800   1.1783   0.11546   0.11248  -0.0055   0.0144   1.0000
  19.100   0.8570   0.12876   0.12644   0.0016   0.0159   1.0000
  19.200   0.8435   0.13134   0.12907   0.0001   0.0159   1.0000
  19.300   0.8278   0.13436   0.13215  -0.0017   0.0159   1.0000
  19.400   0.8124   0.13747   0.13532  -0.0036   0.0160   1.0000
  19.500   0.7893   0.14188   0.13981  -0.0063   0.0160   1.0000
