  
       XFOIL         Version 6.99
  
 Calculated polar for: NACA 2414                                       
  
 1 1 Reynolds number fixed          Mach number fixed         
  
 xtrf =   1.000 (top)        1.000 (bottom)  
 Mach =   0.000     Re =     0.100 e 6     Ncrit =   9.000
  
   alpha    CL        CD       CDp       CM     Top_Xtr  Bot_Xtr
  ------ -------- --------- --------- -------- -------- --------
 -15.000  -0.5428   0.17790   0.17210  -0.0113   1.0000   0.1061
 -14.900  -0.5192   0.17313   0.16730  -0.0089   1.0000   0.1069
 -14.800  -0.5064   0.17065   0.16480  -0.0080   1.0000   0.1077
 -14.700  -0.4989   0.16904   0.16319  -0.0077   1.0000   0.1085
 -14.600  -0.4934   0.16768   0.16181  -0.0078   1.0000   0.1095
 -14.500  -0.4891   0.16641   0.16054  -0.0080   1.0000   0.1106
 -14.400  -0.4856   0.16517   0.15930  -0.0083   1.0000   0.1118
 -14.300  -0.4830   0.16394   0.15807  -0.0088   1.0000   0.1132
 -14.200  -0.4815   0.16273   0.15687  -0.0095   1.0000   0.1148
 -14.100  -0.4831   0.16170   0.15585  -0.0107   1.0000   0.1166
 -14.000  -0.4954   0.16165   0.15583  -0.0131   1.0000   0.1182
 -13.900  -0.5117   0.16150   0.15573  -0.0163   1.0000   0.1188
 -13.800  -0.5170   0.15997   0.15424  -0.0179   1.0000   0.1191
 -13.700  -0.4966   0.15668   0.15090  -0.0157   1.0000   0.1198
 -13.600  -0.4810   0.15451   0.14870  -0.0143   1.0000   0.1209
 -13.500  -0.4720   0.15304   0.14723  -0.0138   1.0000   0.1222
 -13.400  -0.4663   0.15180   0.14598  -0.0138   1.0000   0.1236
 -13.300  -0.4626   0.15059   0.14477  -0.0140   1.0000   0.1252
 -13.200  -0.4605   0.14937   0.14356  -0.0144   1.0000   0.1270
 -13.100  -0.4609   0.14820   0.14239  -0.0152   1.0000   0.1290
 -13.000  -0.4708   0.14751   0.14172  -0.0173   1.0000   0.1313
 -12.900  -0.4918   0.14708   0.14135  -0.0210   1.0000   0.1324
 -12.600  -0.4703   0.14087   0.13514  -0.0200   1.0000   0.1343
 -12.500  -0.4605   0.13937   0.13362  -0.0193   1.0000   0.1353
 -12.400  -0.4537   0.13805   0.13229  -0.0190   1.0000   0.1364
 -12.300  -0.4486   0.13680   0.13104  -0.0189   1.0000   0.1378
 -12.200  -0.4452   0.13560   0.12984  -0.0191   1.0000   0.1397
 -12.100  -0.4440   0.13438   0.12862  -0.0196   1.0000   0.1419
 -12.000  -0.4488   0.13320   0.12746  -0.0209   1.0000   0.1446
 -11.900  -0.4724   0.13228   0.12660  -0.0248   1.0000   0.1467
 -11.800  -0.4927   0.13091   0.12529  -0.0283   1.0000   0.1472
 -11.400  -0.4384   0.12435   0.11866  -0.0229   1.0000   0.1524
 -11.300  -0.4349   0.12313   0.11744  -0.0229   1.0000   0.1541
 -11.200  -0.4335   0.12185   0.11616  -0.0233   1.0000   0.1561
 -11.100  -0.4358   0.12052   0.11485  -0.0241   1.0000   0.1586
 -10.900  -0.4940   0.11733   0.11181  -0.0331   1.0000   0.1626
 -10.700  -0.4577   0.11349   0.10792  -0.0290   1.0000   0.1641
 -10.600  -0.4447   0.11236   0.10677  -0.0277   1.0000   0.1653
 -10.500  -0.4347   0.11141   0.10580  -0.0268   1.0000   0.1671
 -10.400  -0.4294   0.11038   0.10476  -0.0265   1.0000   0.1693
 -10.300  -0.4281   0.10917   0.10356  -0.0268   1.0000   0.1718
 -10.200  -0.4339   0.10774   0.10216  -0.0280   1.0000   0.1750
 -10.100  -0.4685   0.10564   0.10017  -0.0328   1.0000   0.1778
 -10.000  -0.4930   0.10325   0.09784  -0.0364   1.0000   0.1783
  -9.700  -0.4412   0.09955   0.09406  -0.0305   1.0000   0.1819
  -9.600  -0.4366   0.09832   0.09283  -0.0303   1.0000   0.1830
  -9.500  -0.4344   0.09700   0.09151  -0.0303   1.0000   0.1841
  -9.400  -0.4336   0.09561   0.09014  -0.0305   1.0000   0.1853
  -9.300  -0.4341   0.09419   0.08874  -0.0308   1.0000   0.1868
  -9.200  -0.4367   0.09263   0.08719  -0.0313   1.0000   0.1883
  -9.100  -0.4411   0.09090   0.08549  -0.0320   1.0000   0.1892
  -9.000  -0.4448   0.08903   0.08364  -0.0326   1.0000   0.1888
  -8.900  -0.4505   0.08674   0.08138  -0.0334   1.0000   0.1863
  -8.700  -0.7714   0.04228   0.03508  -0.0408   1.0000   0.0969
  -8.600  -0.7657   0.04184   0.03467  -0.0401   1.0000   0.0979
  -8.500  -0.7621   0.04117   0.03395  -0.0392   1.0000   0.0989
  -8.400  -0.7595   0.04035   0.03304  -0.0382   1.0000   0.0997
  -8.300  -0.7572   0.03945   0.03203  -0.0371   1.0000   0.1006
  -8.200  -0.7550   0.03850   0.03095  -0.0361   1.0000   0.1015
  -8.100  -0.7526   0.03754   0.02983  -0.0351   1.0000   0.1023
  -8.000  -0.7499   0.03662   0.02873  -0.0340   1.0000   0.1033
  -7.900  -0.7471   0.03574   0.02765  -0.0329   1.0000   0.1045
  -7.800  -0.7443   0.03496   0.02661  -0.0318   1.0000   0.1056
  -7.700  -0.7398   0.03402   0.02559  -0.0311   1.0000   0.1068
  -7.600  -0.7330   0.03339   0.02501  -0.0306   1.0000   0.1082
  -7.500  -0.7264   0.03295   0.02459  -0.0300   1.0000   0.1096
  -7.400  -0.7197   0.03253   0.02416  -0.0294   1.0000   0.1110
  -7.300  -0.7133   0.03203   0.02363  -0.0288   1.0000   0.1125
  -7.200  -0.7072   0.03148   0.02298  -0.0281   1.0000   0.1142
  -7.100  -0.7011   0.03092   0.02228  -0.0274   1.0000   0.1160
  -7.000  -0.6953   0.03038   0.02154  -0.0266   1.0000   0.1179
  -6.900  -0.6889   0.02974   0.02077  -0.0260   1.0000   0.1196
  -6.800  -0.6812   0.02919   0.02032  -0.0256   1.0000   0.1214
  -6.700  -0.6739   0.02885   0.02000  -0.0252   1.0000   0.1233
  -6.600  -0.6665   0.02850   0.01963  -0.0247   1.0000   0.1254
  -6.500  -0.6592   0.02812   0.01919  -0.0241   1.0000   0.1277
  -6.400  -0.6519   0.02773   0.01867  -0.0236   1.0000   0.1303
  -6.300  -0.6447   0.02740   0.01813  -0.0229   1.0000   0.1327
  -6.200  -0.6365   0.02679   0.01765  -0.0227   1.0000   0.1351
  -6.100  -0.6285   0.02650   0.01742  -0.0223   1.0000   0.1376
  -6.000  -0.6206   0.02623   0.01714  -0.0219   1.0000   0.1404
  -5.900  -0.6126   0.02594   0.01677  -0.0215   1.0000   0.1436
  -5.800  -0.6046   0.02568   0.01634  -0.0210   1.0000   0.1468
  -5.700  -0.5961   0.02520   0.01595  -0.0208   1.0000   0.1498
  -5.600  -0.5880   0.02496   0.01578  -0.0205   1.0000   0.1530
  -5.500  -0.5799   0.02474   0.01555  -0.0201   1.0000   0.1566
  -5.400  -0.5717   0.02452   0.01522  -0.0197   1.0000   0.1607
  -5.300  -0.5633   0.02417   0.01486  -0.0194   1.0000   0.1644
  -5.200  -0.5552   0.02394   0.01474  -0.0191   1.0000   0.1682
  -5.100  -0.5471   0.02376   0.01456  -0.0188   1.0000   0.1726
  -5.000  -0.5389   0.02360   0.01427  -0.0184   1.0000   0.1776
  -4.900  -0.5305   0.02328   0.01404  -0.0182   1.0000   0.1817
  -4.800  -0.5225   0.02312   0.01394  -0.0179   1.0000   0.1865
  -4.700  -0.5144   0.02299   0.01375  -0.0175   1.0000   0.1923
  -4.600  -0.5061   0.02274   0.01354  -0.0173   1.0000   0.1975
  -4.500  -0.4981   0.02259   0.01347  -0.0170   1.0000   0.2029
  -4.400  -0.4899   0.02249   0.01330  -0.0167   1.0000   0.2096
  -4.300  -0.4747   0.02226   0.01318  -0.0178   0.9981   0.2174
  -4.200  -0.4559   0.02218   0.01302  -0.0194   0.9952   0.2285
  -4.100  -0.4378   0.02199   0.01298  -0.0210   0.9928   0.2383
  -4.000  -0.4209   0.02181   0.01284  -0.0224   0.9894   0.2494
  -3.900  -0.4028   0.02172   0.01273  -0.0239   0.9862   0.2623
  -3.800  -0.3843   0.02156   0.01271  -0.0256   0.9835   0.2748
  -3.700  -0.3672   0.02141   0.01263  -0.0269   0.9804   0.2880
  -3.600  -0.3515   0.02125   0.01252  -0.0280   0.9765   0.3018
  -3.500  -0.3339   0.02112   0.01245  -0.0294   0.9732   0.3176
  -3.400  -0.3151   0.02100   0.01240  -0.0311   0.9706   0.3347
  -3.300  -0.2997   0.02085   0.01234  -0.0321   0.9669   0.3508
  -3.200  -0.2852   0.02068   0.01227  -0.0329   0.9626   0.3670
  -3.100  -0.2680   0.02052   0.01221  -0.0342   0.9593   0.3860
  -3.000  -0.2493   0.02036   0.01217  -0.0358   0.9567   0.4072
  -2.900  -0.2348   0.02021   0.01214  -0.0365   0.9528   0.4268
  -2.800  -0.2220   0.02005   0.01211  -0.0369   0.9480   0.4465
  -2.700  -0.2056   0.01989   0.01209  -0.0380   0.9445   0.4701
  -2.600  -0.1873   0.01974   0.01206  -0.0393   0.9417   0.4979
  -2.500  -0.1716   0.01959   0.01206  -0.0401   0.9384   0.5238
  -2.400  -0.1616   0.01948   0.01206  -0.0399   0.9326   0.5481
  -2.300  -0.1465   0.01933   0.01207  -0.0405   0.9289   0.5769
  -2.200  -0.1292   0.01919   0.01206  -0.0414   0.9261   0.6092
  -2.100  -0.1109   0.01905   0.01207  -0.0425   0.9239   0.6424
  -2.000  -0.1051   0.01900   0.01213  -0.0412   0.9170   0.6660
  -1.900  -0.0913   0.01891   0.01215  -0.0413   0.9130   0.6957
  -1.800  -0.0748   0.01881   0.01216  -0.0418   0.9101   0.7258
  -1.700  -0.0569   0.01874   0.01217  -0.0425   0.9079   0.7564
  -1.600  -0.0490   0.01876   0.01227  -0.0414   0.9021   0.7789
  -1.500  -0.0369   0.01876   0.01232  -0.0409   0.8975   0.8032
  -1.400  -0.0202   0.01874   0.01234  -0.0413   0.8946   0.8285
  -1.300  -0.0006   0.01873   0.01235  -0.0421   0.8924   0.8509
  -1.200   0.0213   0.01873   0.01235  -0.0433   0.8907   0.8712
  -1.000   0.0534   0.01888   0.01248  -0.0442   0.8814   0.9057
  -0.900   0.0772   0.01890   0.01246  -0.0460   0.8787   0.9211
  -0.800   0.1079   0.01889   0.01241  -0.0491   0.8770   0.9320
  -0.700   0.1390   0.01884   0.01231  -0.0524   0.8755   0.9422
  -0.600   0.1708   0.01876   0.01218  -0.0559   0.8740   0.9514
  -0.500   0.2071   0.01863   0.01200  -0.0604   0.8729   0.9578
  -0.400   0.2329   0.01862   0.01196  -0.0631   0.8675   0.9667
  -0.300   0.2646   0.01848   0.01178  -0.0669   0.8639   0.9733
  -0.200   0.2946   0.01830   0.01156  -0.0703   0.8607   0.9809
  -0.100   0.3273   0.01803   0.01125  -0.0743   0.8580   0.9866
  -0.000   0.3577   0.01775   0.01093  -0.0778   0.8554   0.9932
   0.100   0.3848   0.01760   0.01077  -0.0811   0.8487   0.9998
   0.200   0.3941   0.01745   0.01058  -0.0808   0.8424   1.0000
   0.300   0.4055   0.01723   0.01032  -0.0808   0.8381   1.0000
   0.400   0.4101   0.01724   0.01031  -0.0799   0.8296   1.0000
   0.500   0.4195   0.01710   0.01013  -0.0795   0.8238   1.0000
   0.600   0.4308   0.01691   0.00990  -0.0793   0.8196   1.0000
   0.700   0.4351   0.01697   0.00994  -0.0784   0.8109   1.0000
   0.800   0.4449   0.01684   0.00978  -0.0780   0.8055   1.0000
   0.900   0.4543   0.01675   0.00964  -0.0776   0.8003   1.0000
   1.000   0.4603   0.01678   0.00966  -0.0768   0.7926   1.0000
   1.100   0.4701   0.01668   0.00951  -0.0763   0.7874   1.0000
   1.200   0.4789   0.01664   0.00944  -0.0758   0.7818   1.0000
   1.300   0.4856   0.01667   0.00945  -0.0751   0.7746   1.0000
   1.400   0.4955   0.01659   0.00933  -0.0747   0.7696   1.0000
   1.500   0.5042   0.01658   0.00928  -0.0742   0.7640   1.0000
   1.600   0.5112   0.01663   0.00932  -0.0734   0.7569   1.0000
   1.700   0.5212   0.01658   0.00921  -0.0730   0.7519   1.0000
   1.800   0.5301   0.01658   0.00919  -0.0725   0.7465   1.0000
   1.900   0.5372   0.01665   0.00925  -0.0718   0.7395   1.0000
   2.000   0.5471   0.01662   0.00917  -0.0714   0.7345   1.0000
   2.100   0.5566   0.01663   0.00914  -0.0709   0.7293   1.0000
   2.200   0.5634   0.01672   0.00923  -0.0702   0.7224   1.0000
   2.300   0.5732   0.01672   0.00918  -0.0697   0.7173   1.0000
   2.400   0.5836   0.01672   0.00913  -0.0694   0.7126   1.0000
   2.500   0.5900   0.01684   0.00926  -0.0686   0.7055   1.0000
   2.600   0.5995   0.01686   0.00924  -0.0682   0.7002   1.0000
   2.700   0.6110   0.01683   0.00915  -0.0679   0.6960   1.0000
   2.800   0.6169   0.01699   0.00934  -0.0671   0.6888   1.0000
   2.900   0.6261   0.01703   0.00935  -0.0666   0.6833   1.0000
   3.000   0.6374   0.01702   0.00927  -0.0664   0.6790   1.0000
   3.100   0.6440   0.01717   0.00944  -0.0656   0.6723   1.0000
   3.200   0.6529   0.01723   0.00948  -0.0651   0.6666   1.0000
   3.300   0.6638   0.01724   0.00943  -0.0648   0.6620   1.0000
   3.400   0.6714   0.01737   0.00957  -0.0641   0.6559   1.0000
   3.500   0.6798   0.01746   0.00965  -0.0635   0.6499   1.0000
   3.600   0.6905   0.01749   0.00962  -0.0632   0.6451   1.0000
   3.700   0.6991   0.01759   0.00972  -0.0627   0.6395   1.0000
   3.800   0.7069   0.01771   0.00984  -0.0620   0.6332   1.0000
   3.900   0.7173   0.01775   0.00983  -0.0617   0.6281   1.0000
   4.000   0.7269   0.01783   0.00988  -0.0613   0.6230   1.0000
   4.100   0.7341   0.01797   0.01005  -0.0605   0.6164   1.0000
   4.200   0.7442   0.01802   0.01006  -0.0602   0.6111   1.0000
   4.300   0.7546   0.01809   0.01008  -0.0598   0.6062   1.0000
   4.400   0.7614   0.01824   0.01027  -0.0590   0.5995   1.0000
   4.500   0.7711   0.01830   0.01030  -0.0586   0.5940   1.0000
   4.600   0.7822   0.01836   0.01029  -0.0584   0.5892   1.0000
   4.700   0.7886   0.01852   0.01050  -0.0575   0.5822   1.0000
   4.800   0.7982   0.01860   0.01055  -0.0571   0.5765   1.0000
   4.900   0.8094   0.01866   0.01054  -0.0569   0.5716   1.0000
   5.000   0.8157   0.01882   0.01076  -0.0560   0.5646   1.0000
   5.100   0.8254   0.01889   0.01080  -0.0556   0.5588   1.0000
   5.200   0.8361   0.01896   0.01081  -0.0553   0.5536   1.0000
   5.300   0.8427   0.01912   0.01102  -0.0545   0.5464   1.0000
   5.400   0.8526   0.01918   0.01105  -0.0541   0.5406   1.0000
   5.500   0.8625   0.01928   0.01111  -0.0537   0.5349   1.0000
   5.600   0.8696   0.01942   0.01128  -0.0529   0.5278   1.0000
   5.700   0.8800   0.01948   0.01130  -0.0526   0.5220   1.0000
   5.800   0.8885   0.01961   0.01143  -0.0520   0.5156   1.0000
   5.900   0.8964   0.01972   0.01155  -0.0514   0.5086   1.0000
   6.000   0.9074   0.01978   0.01153  -0.0511   0.5029   1.0000
   6.100   0.9143   0.01993   0.01174  -0.0503   0.4957   1.0000
   6.200   0.9233   0.02002   0.01180  -0.0498   0.4890   1.0000
   6.300   0.9334   0.02011   0.01183  -0.0495   0.4829   1.0000
   6.400   0.9400   0.02025   0.01203  -0.0486   0.4752   1.0000
   6.500   0.9501   0.02032   0.01204  -0.0483   0.4689   1.0000
   6.600   0.9576   0.02047   0.01222  -0.0475   0.4616   1.0000
   6.700   0.9660   0.02056   0.01230  -0.0470   0.4544   1.0000
   6.800   0.9755   0.02067   0.01234  -0.0465   0.4479   1.0000
   6.900   0.9821   0.02080   0.01254  -0.0457   0.4398   1.0000
   7.000   0.9920   0.02088   0.01253  -0.0453   0.4332   1.0000
   7.100   0.9984   0.02104   0.01275  -0.0444   0.4250   1.0000
   7.200   1.0070   0.02113   0.01280  -0.0439   0.4177   1.0000
   7.300   1.0143   0.02127   0.01296  -0.0432   0.4100   1.0000
   7.400   1.0220   0.02138   0.01306  -0.0425   0.4020   1.0000
   7.500   1.0297   0.02152   0.01317  -0.0418   0.3944   1.0000
   7.600   1.0366   0.02165   0.01332  -0.0410   0.3859   1.0000
   7.700   1.0444   0.02178   0.01340  -0.0403   0.3783   1.0000
   7.800   1.0507   0.02193   0.01358  -0.0395   0.3694   1.0000
   7.900   1.0582   0.02209   0.01368  -0.0388   0.3616   1.0000
   8.000   1.0642   0.02225   0.01386  -0.0379   0.3524   1.0000
   8.100   1.0711   0.02243   0.01401  -0.0371   0.3442   1.0000
   8.200   1.0770   0.02262   0.01420  -0.0362   0.3350   1.0000
   8.300   1.0833   0.02284   0.01438  -0.0354   0.3263   1.0000
   8.400   1.0891   0.02304   0.01456  -0.0345   0.3172   1.0000
   8.500   1.0947   0.02330   0.01480  -0.0336   0.3080   1.0000
   8.600   1.1005   0.02354   0.01497  -0.0327   0.2994   1.0000
   8.700   1.1055   0.02383   0.01527  -0.0317   0.2898   1.0000
   8.800   1.1113   0.02413   0.01544  -0.0309   0.2816   1.0000
   8.900   1.1156   0.02443   0.01580  -0.0298   0.2718   1.0000
   9.000   1.1209   0.02477   0.01604  -0.0289   0.2636   1.0000
   9.100   1.1250   0.02510   0.01640  -0.0278   0.2543   1.0000
   9.200   1.1299   0.02549   0.01670  -0.0269   0.2463   1.0000
   9.300   1.1339   0.02584   0.01705  -0.0259   0.2378   1.0000
   9.400   1.1385   0.02627   0.01740  -0.0249   0.2301   1.0000
   9.500   1.1424   0.02665   0.01778  -0.0239   0.2222   1.0000
   9.600   1.1471   0.02711   0.01814  -0.0230   0.2153   1.0000
   9.700   1.1508   0.02752   0.01858  -0.0219   0.2078   1.0000
   9.800   1.1560   0.02801   0.01891  -0.0212   0.2016   1.0000
   9.900   1.1591   0.02844   0.01943  -0.0201   0.1948   1.0000
  10.000   1.1635   0.02889   0.01980  -0.0192   0.1890   1.0000
  10.100   1.1679   0.02941   0.02031  -0.0183   0.1833   1.0000
  10.200   1.1711   0.02984   0.02076  -0.0172   0.1777   1.0000
  10.300   1.1762   0.03034   0.02114  -0.0165   0.1729   1.0000
  10.400   1.1798   0.03086   0.02170  -0.0155   0.1679   1.0000
  10.500   1.1833   0.03133   0.02219  -0.0145   0.1632   1.0000
  10.600   1.1888   0.03183   0.02260  -0.0138   0.1590   1.0000
  10.700   1.1940   0.03243   0.02319  -0.0131   0.1548   1.0000
  10.800   1.1970   0.03293   0.02376  -0.0121   0.1507   1.0000
  10.900   1.2017   0.03342   0.02422  -0.0113   0.1470   1.0000
  11.000   1.2119   0.03410   0.02471  -0.0114   0.1429   1.0000
  11.100   1.2131   0.03463   0.02540  -0.0102   0.1399   1.0000
  11.200   1.2166   0.03517   0.02600  -0.0093   0.1366   1.0000
  11.300   1.2218   0.03569   0.02650  -0.0086   0.1335   1.0000
  11.400   1.2323   0.03632   0.02697  -0.0087   0.1301   1.0000
  11.500   1.2361   0.03699   0.02772  -0.0079   0.1275   1.0000
  11.600   1.2383   0.03759   0.02843  -0.0069   0.1250   1.0000
  11.700   1.2423   0.03817   0.02905  -0.0062   0.1224   1.0000
  11.800   1.2486   0.03872   0.02957  -0.0057   0.1199   1.0000
  11.900   1.2665   0.03956   0.03016  -0.0068   0.1164   1.0000
  12.000   1.2659   0.04018   0.03094  -0.0055   0.1149   1.0000
  12.100   1.2667   0.04084   0.03175  -0.0044   0.1131   1.0000
  12.200   1.2690   0.04151   0.03250  -0.0035   0.1112   1.0000
  12.300   1.2731   0.04213   0.03316  -0.0028   0.1092   1.0000
  12.400   1.2800   0.04272   0.03371  -0.0025   0.1072   1.0000
  12.500   1.3020   0.04369   0.03444  -0.0040   0.1042   1.0000
  12.600   1.2998   0.04440   0.03531  -0.0026   0.1032   1.0000
  12.700   1.2988   0.04516   0.03622  -0.0014   0.1020   1.0000
  12.800   1.2991   0.04596   0.03712  -0.0005   0.1007   1.0000
  12.900   1.3002   0.04674   0.03800   0.0004   0.0993   1.0000
  13.000   1.3021   0.04750   0.03883   0.0011   0.0980   1.0000
  13.100   1.3053   0.04822   0.03958   0.0017   0.0966   1.0000
  13.200   1.3123   0.04888   0.04020   0.0020   0.0951   1.0000
  13.300   1.3361   0.05000   0.04112   0.0005   0.0927   1.0000
  13.400   1.3313   0.05089   0.04217   0.0019   0.0922   1.0000
  13.500   1.3268   0.05185   0.04329   0.0031   0.0916   1.0000
  13.600   1.3228   0.05287   0.04445   0.0042   0.0909   1.0000
  13.700   1.3190   0.05394   0.04565   0.0052   0.0902   1.0000
  13.800   1.3157   0.05504   0.04686   0.0061   0.0895   1.0000
  13.900   1.3128   0.05614   0.04807   0.0069   0.0887   1.0000
  14.000   1.3106   0.05723   0.04926   0.0075   0.0880   1.0000
  14.100   1.3096   0.05828   0.05038   0.0081   0.0871   1.0000
  14.200   1.3097   0.05928   0.05143   0.0086   0.0863   1.0000
  14.300   1.3096   0.06028   0.05249   0.0091   0.0855   1.0000
  14.400   1.3116   0.06121   0.05344   0.0094   0.0846   1.0000
  14.500   1.3171   0.06207   0.05428   0.0096   0.0837   1.0000
  14.600   1.3351   0.06329   0.05536   0.0092   0.0823   1.0000
  14.700   1.3260   0.06473   0.05694   0.0099   0.0821   1.0000
  14.800   1.3168   0.06627   0.05862   0.0106   0.0819   1.0000
  14.900   1.3073   0.06790   0.06039   0.0111   0.0818   1.0000
  15.000   1.2973   0.06965   0.06227   0.0114   0.0816   1.0000
