  
       XFOIL         Version 6.99
  
 Calculated polar for: NACA 2414                                       
  
 1 1 Reynolds number fixed          Mach number fixed         
  
 xtrf =   1.000 (top)        1.000 (bottom)  
 Mach =   0.000     Re =     1.266 e 6     Ncrit =   9.000
  
   alpha    CL        CD       CDp       CM     Top_Xtr  Bot_Xtr
  ------ -------- --------- --------- -------- -------- --------
 -14.900  -1.2758   0.02395   0.01930  -0.0685   1.0000   0.0192
 -14.800  -1.2715   0.02365   0.01897  -0.0678   1.0000   0.0193
 -14.700  -1.2733   0.02309   0.01837  -0.0663   1.0000   0.0194
 -14.600  -1.2742   0.02263   0.01788  -0.0648   1.0000   0.0196
 -14.500  -1.2740   0.02223   0.01745  -0.0634   1.0000   0.0197
 -14.400  -1.2715   0.02186   0.01707  -0.0623   1.0000   0.0199
 -14.300  -1.2683   0.02154   0.01673  -0.0612   1.0000   0.0200
 -14.200  -1.2646   0.02125   0.01642  -0.0602   1.0000   0.0202
 -14.100  -1.2608   0.02098   0.01614  -0.0592   1.0000   0.0203
 -14.000  -1.2566   0.02074   0.01588  -0.0582   1.0000   0.0204
 -13.900  -1.2523   0.02051   0.01564  -0.0572   1.0000   0.0206
 -13.800  -1.2479   0.02029   0.01540  -0.0561   1.0000   0.0207
 -13.700  -1.2434   0.02008   0.01517  -0.0551   1.0000   0.0209
 -13.600  -1.2389   0.01988   0.01496  -0.0541   1.0000   0.0210
 -13.500  -1.2344   0.01969   0.01475  -0.0530   1.0000   0.0211
 -13.400  -1.2300   0.01949   0.01454  -0.0520   1.0000   0.0213
 -13.300  -1.2254   0.01931   0.01434  -0.0509   1.0000   0.0214
 -13.200  -1.2209   0.01913   0.01415  -0.0498   1.0000   0.0215
 -13.100  -1.2162   0.01895   0.01395  -0.0487   1.0000   0.0217
 -13.000  -1.2115   0.01878   0.01376  -0.0477   1.0000   0.0218
 -12.900  -1.2066   0.01861   0.01358  -0.0466   1.0000   0.0220
 -12.800  -1.2016   0.01845   0.01340  -0.0456   1.0000   0.0221
 -12.700  -1.1964   0.01830   0.01322  -0.0446   1.0000   0.0222
 -12.600  -1.1872   0.01812   0.01303  -0.0444   0.9998   0.0224
 -12.500  -1.1751   0.01795   0.01283  -0.0448   0.9994   0.0225
 -12.400  -1.1640   0.01763   0.01249  -0.0451   0.9989   0.0228
 -12.300  -1.1531   0.01727   0.01211  -0.0454   0.9984   0.0232
 -12.200  -1.1416   0.01699   0.01183  -0.0458   0.9978   0.0235
 -12.100  -1.1297   0.01676   0.01159  -0.0462   0.9973   0.0238
 -12.000  -1.1175   0.01656   0.01139  -0.0466   0.9968   0.0241
 -11.900  -1.1052   0.01637   0.01119  -0.0470   0.9963   0.0244
 -11.800  -1.0927   0.01619   0.01100  -0.0475   0.9959   0.0246
 -11.700  -1.0802   0.01602   0.01081  -0.0479   0.9954   0.0249
 -11.600  -1.0675   0.01584   0.01062  -0.0484   0.9950   0.0252
 -11.500  -1.0547   0.01567   0.01044  -0.0489   0.9946   0.0255
 -11.400  -1.0419   0.01551   0.01026  -0.0494   0.9943   0.0257
 -11.300  -1.0288   0.01537   0.01010  -0.0499   0.9939   0.0260
 -11.200  -1.0156   0.01523   0.00995  -0.0504   0.9936   0.0261
 -11.100  -1.0041   0.01492   0.00962  -0.0508   0.9931   0.0266
 -11.000  -0.9933   0.01468   0.00937  -0.0509   0.9921   0.0271
 -10.900  -0.9818   0.01448   0.00917  -0.0511   0.9912   0.0275
 -10.800  -0.9697   0.01430   0.00899  -0.0514   0.9904   0.0278
 -10.700  -0.9575   0.01414   0.00883  -0.0518   0.9896   0.0282
 -10.600  -0.9449   0.01399   0.00867  -0.0522   0.9889   0.0286
 -10.500  -0.9321   0.01384   0.00851  -0.0526   0.9882   0.0290
 -10.400  -0.9192   0.01370   0.00837  -0.0531   0.9876   0.0294
 -10.300  -0.9061   0.01358   0.00823  -0.0535   0.9870   0.0297
 -10.200  -0.8928   0.01346   0.00810  -0.0541   0.9865   0.0300
 -10.100  -0.8800   0.01326   0.00788  -0.0546   0.9860   0.0306
 -10.000  -0.8671   0.01304   0.00766  -0.0551   0.9855   0.0312
  -9.900  -0.8539   0.01286   0.00750  -0.0556   0.9851   0.0318
  -9.800  -0.8404   0.01271   0.00734  -0.0562   0.9846   0.0324
  -9.700  -0.8270   0.01257   0.00720  -0.0568   0.9842   0.0329
  -9.600  -0.8136   0.01244   0.00706  -0.0573   0.9837   0.0334
  -9.500  -0.8002   0.01232   0.00693  -0.0578   0.9831   0.0339
  -9.400  -0.7868   0.01221   0.00681  -0.0583   0.9826   0.0343
  -9.300  -0.7753   0.01209   0.00668  -0.0585   0.9813   0.0347
  -9.200  -0.7655   0.01189   0.00649  -0.0583   0.9792   0.0355
  -9.100  -0.7543   0.01174   0.00634  -0.0583   0.9775   0.0362
  -9.000  -0.7427   0.01161   0.00621  -0.0584   0.9759   0.0369
  -8.900  -0.7309   0.01148   0.00609  -0.0586   0.9744   0.0376
  -8.800  -0.7191   0.01137   0.00597  -0.0588   0.9730   0.0382
  -8.700  -0.7073   0.01127   0.00586  -0.0589   0.9716   0.0388
  -8.600  -0.6951   0.01119   0.00576  -0.0591   0.9702   0.0393
  -8.500  -0.6848   0.01104   0.00561  -0.0590   0.9681   0.0403
  -8.400  -0.6754   0.01090   0.00548  -0.0586   0.9653   0.0412
  -8.300  -0.6653   0.01078   0.00537  -0.0584   0.9626   0.0420
  -8.200  -0.6549   0.01068   0.00526  -0.0582   0.9601   0.0428
  -8.100  -0.6440   0.01058   0.00515  -0.0581   0.9579   0.0436
  -8.000  -0.6330   0.01050   0.00505  -0.0581   0.9558   0.0443
  -7.900  -0.6226   0.01043   0.00497  -0.0579   0.9531   0.0448
  -7.800  -0.6128   0.01029   0.00484  -0.0576   0.9501   0.0461
  -7.700  -0.6027   0.01017   0.00472  -0.0574   0.9471   0.0473
  -7.600  -0.5923   0.01007   0.00463  -0.0572   0.9444   0.0483
  -7.500  -0.5816   0.00998   0.00453  -0.0571   0.9420   0.0494
  -7.400  -0.5708   0.00991   0.00445  -0.0570   0.9396   0.0504
  -7.300  -0.5602   0.00984   0.00437  -0.0568   0.9368   0.0512
  -7.200  -0.5499   0.00971   0.00425  -0.0567   0.9338   0.0529
  -7.100  -0.5394   0.00961   0.00416  -0.0565   0.9309   0.0543
  -7.000  -0.5288   0.00952   0.00407  -0.0564   0.9281   0.0556
  -6.900  -0.5180   0.00945   0.00398  -0.0563   0.9255   0.0568
  -6.800  -0.5070   0.00940   0.00391  -0.0562   0.9228   0.0577
  -6.700  -0.4965   0.00929   0.00381  -0.0560   0.9197   0.0597
  -6.600  -0.4859   0.00919   0.00372  -0.0559   0.9164   0.0615
  -6.500  -0.4751   0.00911   0.00364  -0.0558   0.9130   0.0632
  -6.400  -0.4643   0.00905   0.00357  -0.0557   0.9098   0.0647
  -6.300  -0.4535   0.00898   0.00349  -0.0556   0.9068   0.0663
  -6.200  -0.4427   0.00888   0.00341  -0.0555   0.9037   0.0688
  -6.100  -0.4319   0.00880   0.00333  -0.0554   0.9003   0.0709
  -6.000  -0.4209   0.00873   0.00326  -0.0553   0.8968   0.0728
  -5.800  -0.3993   0.00859   0.00311  -0.0551   0.8899   0.0774
  -5.700  -0.3884   0.00851   0.00304  -0.0550   0.8864   0.0801
  -5.600  -0.3773   0.00845   0.00298  -0.0550   0.8825   0.0825
  -5.500  -0.3664   0.00839   0.00291  -0.0549   0.8786   0.0849
  -5.400  -0.3556   0.00831   0.00284  -0.0548   0.8746   0.0883
  -5.300  -0.3447   0.00824   0.00278  -0.0547   0.8709   0.0914
  -5.200  -0.3336   0.00819   0.00272  -0.0547   0.8670   0.0938
  -5.100  -0.3226   0.00812   0.00265  -0.0546   0.8627   0.0974
  -5.000  -0.3118   0.00805   0.00259  -0.0545   0.8585   0.1012
  -4.900  -0.3008   0.00800   0.00253  -0.0544   0.8544   0.1047
  -4.800  -0.2897   0.00794   0.00248  -0.0544   0.8502   0.1082
  -4.700  -0.2788   0.00787   0.00242  -0.0543   0.8456   0.1127
  -4.600  -0.2678   0.00782   0.00237  -0.0542   0.8410   0.1166
  -4.500  -0.2568   0.00778   0.00231  -0.0542   0.8366   0.1199
  -4.400  -0.2458   0.00770   0.00226  -0.0541   0.8322   0.1254
  -4.300  -0.2347   0.00765   0.00221  -0.0541   0.8274   0.1301
  -4.200  -0.2237   0.00761   0.00216  -0.0540   0.8225   0.1342
  -4.100  -0.2128   0.00755   0.00211  -0.0539   0.8179   0.1401
  -4.000  -0.2017   0.00750   0.00207  -0.0539   0.8129   0.1451
  -3.900  -0.1906   0.00745   0.00203  -0.0538   0.8078   0.1502
  -3.800  -0.1798   0.00740   0.00198  -0.0537   0.8026   0.1563
  -3.700  -0.1686   0.00736   0.00194  -0.0537   0.7979   0.1616
  -3.600  -0.1576   0.00730   0.00190  -0.0537   0.7926   0.1678
  -3.500  -0.1466   0.00726   0.00186  -0.0536   0.7871   0.1742
  -3.400  -0.1355   0.00723   0.00183  -0.0535   0.7821   0.1796
  -3.300  -0.1245   0.00717   0.00179  -0.0535   0.7767   0.1870
  -3.200  -0.1135   0.00714   0.00176  -0.0534   0.7709   0.1935
  -3.100  -0.1025   0.00710   0.00172  -0.0533   0.7657   0.2005
  -3.000  -0.0914   0.00705   0.00169  -0.0533   0.7603   0.2080
  -2.900  -0.0803   0.00702   0.00166  -0.0533   0.7544   0.2147
  -2.800  -0.0695   0.00699   0.00163  -0.0532   0.7488   0.2229
  -2.600  -0.0472   0.00691   0.00157  -0.0531   0.7372   0.2382
  -2.400  -0.0251   0.00684   0.00152  -0.0530   0.7260   0.2543
  -2.300  -0.0140   0.00682   0.00150  -0.0530   0.7199   0.2623
  -2.100   0.0081   0.00676   0.00146  -0.0529   0.7083   0.2800
  -2.000   0.0191   0.00672   0.00144  -0.0528   0.7020   0.2894
  -1.800   0.0412   0.00667   0.00140  -0.0527   0.6905   0.3083
  -1.700   0.0523   0.00665   0.00139  -0.0527   0.6841   0.3176
  -1.600   0.0631   0.00663   0.00137  -0.0526   0.6780   0.3281
  -1.500   0.0744   0.00659   0.00136  -0.0526   0.6724   0.3376
  -1.400   0.0854   0.00657   0.00135  -0.0525   0.6660   0.3492
  -1.300   0.0962   0.00655   0.00134  -0.0525   0.6602   0.3601
  -1.200   0.1074   0.00651   0.00133  -0.0525   0.6543   0.3715
  -1.100   0.1184   0.00648   0.00131  -0.0524   0.6479   0.3842
  -1.000   0.1292   0.00646   0.00130  -0.0523   0.6420   0.3972
  -0.900   0.1403   0.00641   0.00130  -0.0523   0.6364   0.4115
  -0.800   0.1511   0.00638   0.00129  -0.0522   0.6301   0.4278
  -0.700   0.1619   0.00635   0.00129  -0.0521   0.6242   0.4451
  -0.600   0.1730   0.00630   0.00128  -0.0521   0.6185   0.4619
  -0.500   0.1838   0.00627   0.00128  -0.0520   0.6123   0.4797
  -0.300   0.2056   0.00620   0.00128  -0.0519   0.6011   0.5144
  -0.200   0.2165   0.00617   0.00128  -0.0518   0.5950   0.5314
  -0.100   0.2273   0.00616   0.00129  -0.0517   0.5893   0.5480
  -0.000   0.2383   0.00612   0.00129  -0.0517   0.5842   0.5637
   0.100   0.2493   0.00610   0.00130  -0.0516   0.5784   0.5791
   0.200   0.2601   0.00610   0.00131  -0.0515   0.5727   0.5936
   0.300   0.2712   0.00607   0.00132  -0.0515   0.5677   0.6090
   0.400   0.2821   0.00605   0.00133  -0.0514   0.5622   0.6240
   0.500   0.2929   0.00605   0.00134  -0.0513   0.5566   0.6382
   0.600   0.3039   0.00603   0.00135  -0.0512   0.5518   0.6524
   0.700   0.3149   0.00601   0.00136  -0.0512   0.5465   0.6665
   0.800   0.3258   0.00601   0.00138  -0.0511   0.5411   0.6812
   0.900   0.3365   0.00601   0.00140  -0.0510   0.5360   0.6953
   1.000   0.3475   0.00598   0.00141  -0.0509   0.5316   0.7092
   1.100   0.3584   0.00598   0.00143  -0.0508   0.5264   0.7230
   1.200   0.3692   0.00599   0.00145  -0.0507   0.5211   0.7366
   1.300   0.3800   0.00597   0.00147  -0.0506   0.5169   0.7505
   1.400   0.3909   0.00596   0.00149  -0.0505   0.5123   0.7639
   1.500   0.4017   0.00596   0.00151  -0.0503   0.5074   0.7774
   1.600   0.4123   0.00598   0.00154  -0.0502   0.5024   0.7906
   1.700   0.4232   0.00596   0.00156  -0.0501   0.4985   0.8039
   1.800   0.4339   0.00596   0.00158  -0.0499   0.4940   0.8171
   2.000   0.4550   0.00599   0.00164  -0.0495   0.4845   0.8420
   2.100   0.4658   0.00598   0.00167  -0.0494   0.4808   0.8539
   2.200   0.4766   0.00599   0.00170  -0.0492   0.4765   0.8659
   2.300   0.4869   0.00600   0.00173  -0.0490   0.4718   0.8769
   2.400   0.4973   0.00604   0.00177  -0.0488   0.4673   0.8874
   2.500   0.5079   0.00605   0.00180  -0.0485   0.4636   0.8981
   2.600   0.5185   0.00606   0.00183  -0.0483   0.4593   0.9074
   2.700   0.5289   0.00610   0.00187  -0.0481   0.4550   0.9167
   2.800   0.5391   0.00614   0.00190  -0.0478   0.4502   0.9249
   2.900   0.5497   0.00617   0.00194  -0.0476   0.4466   0.9332
   3.000   0.5605   0.00620   0.00197  -0.0474   0.4422   0.9401
   3.100   0.5711   0.00624   0.00201  -0.0472   0.4376   0.9471
   3.300   0.5933   0.00634   0.00208  -0.0471   0.4288   0.9585
   3.400   0.6048   0.00638   0.00212  -0.0471   0.4242   0.9636
   3.500   0.6156   0.00644   0.00215  -0.0470   0.4191   0.9688
   3.600   0.6286   0.00651   0.00220  -0.0474   0.4140   0.9718
   3.700   0.6417   0.00655   0.00223  -0.0477   0.4093   0.9751
   3.800   0.6537   0.00661   0.00227  -0.0479   0.4037   0.9788
   3.900   0.6654   0.00669   0.00232  -0.0480   0.3980   0.9822
   4.000   0.6800   0.00674   0.00236  -0.0487   0.3928   0.9837
   4.100   0.6940   0.00680   0.00240  -0.0493   0.3866   0.9853
   4.200   0.7081   0.00689   0.00245  -0.0500   0.3800   0.9870
   4.300   0.7227   0.00695   0.00249  -0.0508   0.3740   0.9885
   4.400   0.7370   0.00704   0.00255  -0.0515   0.3667   0.9901
   4.500   0.7511   0.00712   0.00260  -0.0521   0.3604   0.9917
   4.600   0.7652   0.00720   0.00265  -0.0528   0.3533   0.9933
   4.700   0.7809   0.00730   0.00271  -0.0538   0.3459   0.9941
   4.800   0.7966   0.00738   0.00277  -0.0548   0.3383   0.9950
   4.900   0.8118   0.00750   0.00283  -0.0558   0.3300   0.9960
   5.000   0.8269   0.00757   0.00288  -0.0566   0.3227   0.9969
   5.200   0.8556   0.00777   0.00300  -0.0581   0.3072   0.9986
   5.300   0.8691   0.00789   0.00308  -0.0587   0.2985   0.9993
   5.400   0.8829   0.00798   0.00314  -0.0593   0.2910   0.9999
   5.500   0.8918   0.00808   0.00320  -0.0589   0.2834   1.0000
   5.600   0.9003   0.00816   0.00326  -0.0584   0.2772   1.0000
   5.700   0.9086   0.00826   0.00332  -0.0578   0.2699   1.0000
   5.800   0.9168   0.00836   0.00338  -0.0573   0.2631   1.0000
   5.900   0.9252   0.00844   0.00344  -0.0567   0.2562   1.0000
   6.000   0.9331   0.00857   0.00352  -0.0561   0.2487   1.0000
   6.100   0.9417   0.00865   0.00358  -0.0556   0.2423   1.0000
   6.200   0.9496   0.00878   0.00366  -0.0550   0.2345   1.0000
   6.300   0.9582   0.00887   0.00373  -0.0545   0.2283   1.0000
   6.400   0.9663   0.00899   0.00381  -0.0539   0.2207   1.0000
   6.500   0.9746   0.00910   0.00389  -0.0534   0.2140   1.0000
   6.600   0.9829   0.00922   0.00397  -0.0528   0.2067   1.0000
   6.700   0.9911   0.00935   0.00406  -0.0522   0.1999   1.0000
   6.800   0.9996   0.00946   0.00414  -0.0517   0.1931   1.0000
   6.900   1.0076   0.00961   0.00424  -0.0511   0.1859   1.0000
   7.000   1.0162   0.00971   0.00433  -0.0507   0.1797   1.0000
   7.100   1.0241   0.00987   0.00444  -0.0501   0.1724   1.0000
   7.200   1.0329   0.00998   0.00452  -0.0496   0.1668   1.0000
   7.300   1.0412   0.01013   0.00463  -0.0491   0.1600   1.0000
   7.400   1.0499   0.01025   0.00473  -0.0487   0.1543   1.0000
   7.500   1.0586   0.01039   0.00483  -0.0482   0.1482   1.0000
   7.600   1.0670   0.01055   0.00495  -0.0477   0.1420   1.0000
   7.700   1.0760   0.01067   0.00505  -0.0474   0.1366   1.0000
   7.800   1.0843   0.01084   0.00518  -0.0469   0.1304   1.0000
   7.900   1.0934   0.01096   0.00529  -0.0465   0.1260   1.0000
   8.000   1.1022   0.01111   0.00540  -0.0461   0.1208   1.0000
   8.100   1.1108   0.01127   0.00553  -0.0457   0.1156   1.0000
   8.200   1.1199   0.01140   0.00564  -0.0453   0.1113   1.0000
   8.300   1.1283   0.01157   0.00578  -0.0449   0.1064   1.0000
   8.400   1.1373   0.01171   0.00590  -0.0445   0.1024   1.0000
   8.500   1.1463   0.01185   0.00602  -0.0442   0.0986   1.0000
   8.600   1.1547   0.01202   0.00616  -0.0438   0.0944   1.0000
   8.700   1.1637   0.01216   0.00628  -0.0434   0.0912   1.0000
   8.800   1.1727   0.01229   0.00641  -0.0431   0.0880   1.0000
   8.900   1.1811   0.01247   0.00655  -0.0426   0.0844   1.0000
   9.000   1.1899   0.01262   0.00669  -0.0423   0.0813   1.0000
   9.100   1.1988   0.01276   0.00681  -0.0419   0.0786   1.0000
   9.200   1.2072   0.01292   0.00696  -0.0415   0.0756   1.0000
   9.300   1.2155   0.01310   0.00711  -0.0410   0.0725   1.0000
   9.400   1.2246   0.01323   0.00724  -0.0407   0.0706   1.0000
   9.500   1.2331   0.01338   0.00738  -0.0403   0.0683   1.0000
   9.600   1.2413   0.01356   0.00754  -0.0398   0.0659   1.0000
   9.700   1.2497   0.01372   0.00769  -0.0394   0.0637   1.0000
   9.800   1.2584   0.01386   0.00783  -0.0390   0.0621   1.0000
   9.900   1.2667   0.01402   0.00798  -0.0386   0.0602   1.0000
  10.000   1.2746   0.01420   0.00815  -0.0381   0.0582   1.0000
  10.100   1.2826   0.01438   0.00832  -0.0376   0.0562   1.0000
  10.200   1.2911   0.01452   0.00846  -0.0372   0.0550   1.0000
  10.300   1.2992   0.01467   0.00862  -0.0368   0.0535   1.0000
  10.400   1.3068   0.01485   0.00879  -0.0362   0.0520   1.0000
  10.500   1.3141   0.01505   0.00897  -0.0356   0.0504   1.0000
  10.600   1.3214   0.01521   0.00914  -0.0350   0.0492   1.0000
  10.700   1.3290   0.01536   0.00928  -0.0345   0.0483   1.0000
  10.800   1.3361   0.01552   0.00945  -0.0338   0.0472   1.0000
  10.900   1.3428   0.01570   0.00963  -0.0331   0.0461   1.0000
  11.000   1.3492   0.01590   0.00982  -0.0324   0.0450   1.0000
  11.100   1.3552   0.01613   0.01004  -0.0316   0.0437   1.0000
  11.200   1.3624   0.01629   0.01022  -0.0310   0.0429   1.0000
  11.300   1.3696   0.01646   0.01039  -0.0304   0.0422   1.0000
  11.400   1.3765   0.01664   0.01059  -0.0298   0.0413   1.0000
  11.500   1.3830   0.01685   0.01079  -0.0291   0.0404   1.0000
  11.600   1.3892   0.01708   0.01102  -0.0284   0.0396   1.0000
  11.700   1.3950   0.01733   0.01126  -0.0277   0.0386   1.0000
  11.800   1.4010   0.01757   0.01151  -0.0270   0.0378   1.0000
  11.900   1.4082   0.01775   0.01171  -0.0265   0.0373   1.0000
  12.000   1.4149   0.01795   0.01193  -0.0259   0.0368   1.0000
  12.100   1.4214   0.01817   0.01216  -0.0253   0.0362   1.0000
  12.200   1.4276   0.01841   0.01240  -0.0247   0.0355   1.0000
  12.300   1.4334   0.01867   0.01267  -0.0240   0.0349   1.0000
  12.400   1.4390   0.01896   0.01295  -0.0233   0.0343   1.0000
  12.500   1.4441   0.01927   0.01326  -0.0226   0.0335   1.0000
  12.600   1.4493   0.01958   0.01359  -0.0219   0.0329   1.0000
  12.700   1.4558   0.01981   0.01383  -0.0214   0.0326   1.0000
  12.800   1.4622   0.02005   0.01409  -0.0208   0.0322   1.0000
  12.900   1.4682   0.02032   0.01438  -0.0203   0.0317   1.0000
  13.000   1.4739   0.02061   0.01468  -0.0197   0.0312   1.0000
  13.100   1.4793   0.02092   0.01500  -0.0191   0.0308   1.0000
  13.200   1.4845   0.02125   0.01534  -0.0185   0.0303   1.0000
  13.300   1.4892   0.02161   0.01571  -0.0178   0.0298   1.0000
  13.400   1.4933   0.02202   0.01612  -0.0171   0.0293   1.0000
  13.500   1.4968   0.02248   0.01659  -0.0164   0.0287   1.0000
  13.600   1.5024   0.02280   0.01693  -0.0159   0.0285   1.0000
  13.700   1.5081   0.02312   0.01727  -0.0154   0.0282   1.0000
  13.800   1.5135   0.02346   0.01764  -0.0149   0.0279   1.0000
  13.900   1.5186   0.02383   0.01802  -0.0144   0.0276   1.0000
  14.000   1.5234   0.02422   0.01843  -0.0139   0.0272   1.0000
  14.100   1.5280   0.02463   0.01886  -0.0134   0.0269   1.0000
  14.200   1.5323   0.02508   0.01932  -0.0129   0.0266   1.0000
  14.300   1.5363   0.02554   0.01980  -0.0124   0.0263   1.0000
  14.400   1.5400   0.02604   0.02031  -0.0118   0.0260   1.0000
  14.500   1.5433   0.02658   0.02087  -0.0113   0.0256   1.0000
  14.600   1.5462   0.02717   0.02147  -0.0108   0.0253   1.0000
  14.700   1.5478   0.02786   0.02217  -0.0102   0.0249   1.0000
  14.800   1.5508   0.02844   0.02278  -0.0097   0.0247   1.0000
  14.900   1.5552   0.02893   0.02329  -0.0093   0.0245   1.0000
  15.000   1.5594   0.02944   0.02383  -0.0090   0.0243   1.0000
