  
       XFOIL         Version 6.99
  
 Calculated polar for: NACA 2412                                       
  
 1 1 Reynolds number fixed          Mach number fixed         
  
 xtrf =   1.000 (top)        1.000 (bottom)  
 Mach =   0.000     Re =     1.700 e 6     Ncrit =   9.000
  
   alpha    CL        CD       CDp       CM     Top_Xtr  Bot_Xtr
  ------ -------- --------- --------- -------- -------- --------
 -15.000  -1.3244   0.02363   0.01958  -0.0626   1.0000   0.0118
 -14.900  -1.3187   0.02327   0.01920  -0.0621   1.0000   0.0119
 -14.800  -1.3127   0.02294   0.01885  -0.0616   1.0000   0.0120
 -14.700  -1.3064   0.02262   0.01850  -0.0611   1.0000   0.0121
 -14.600  -1.3000   0.02231   0.01817  -0.0606   1.0000   0.0121
 -14.500  -1.2934   0.02201   0.01785  -0.0602   1.0000   0.0122
 -14.400  -1.2867   0.02172   0.01754  -0.0597   1.0000   0.0123
 -14.300  -1.2799   0.02143   0.01722  -0.0592   1.0000   0.0124
 -14.200  -1.2731   0.02115   0.01692  -0.0588   1.0000   0.0124
 -14.100  -1.2663   0.02088   0.01663  -0.0583   1.0000   0.0125
 -14.000  -1.2594   0.02062   0.01634  -0.0578   1.0000   0.0126
 -13.900  -1.2525   0.02036   0.01607  -0.0572   1.0000   0.0127
 -13.800  -1.2456   0.02011   0.01580  -0.0567   1.0000   0.0128
 -13.700  -1.2389   0.01987   0.01553  -0.0561   1.0000   0.0129
 -13.600  -1.2321   0.01964   0.01528  -0.0555   1.0000   0.0129
 -13.500  -1.2253   0.01941   0.01503  -0.0549   1.0000   0.0130
 -13.400  -1.2184   0.01919   0.01479  -0.0543   1.0000   0.0131
 -13.300  -1.2116   0.01898   0.01456  -0.0537   1.0000   0.0132
 -13.200  -1.2046   0.01879   0.01434  -0.0530   1.0000   0.0132
 -13.100  -1.1978   0.01859   0.01412  -0.0524   1.0000   0.0133
 -13.000  -1.1909   0.01840   0.01392  -0.0517   1.0000   0.0133
 -12.900  -1.1840   0.01823   0.01372  -0.0510   1.0000   0.0134
 -12.800  -1.1771   0.01806   0.01353  -0.0504   1.0000   0.0134
 -12.700  -1.1702   0.01789   0.01335  -0.0497   1.0000   0.0135
 -12.600  -1.1665   0.01747   0.01288  -0.0485   1.0000   0.0137
 -12.500  -1.1618   0.01713   0.01251  -0.0476   1.0000   0.0138
 -12.400  -1.1563   0.01685   0.01221  -0.0467   1.0000   0.0140
 -12.300  -1.1504   0.01661   0.01195  -0.0458   1.0000   0.0142
 -12.200  -1.1441   0.01640   0.01172  -0.0450   1.0000   0.0143
 -12.100  -1.1376   0.01620   0.01152  -0.0443   1.0000   0.0145
 -12.000  -1.1294   0.01601   0.01131  -0.0438   0.9999   0.0146
 -11.900  -1.1175   0.01580   0.01109  -0.0442   0.9996   0.0148
 -11.800  -1.1055   0.01561   0.01089  -0.0445   0.9993   0.0149
 -11.700  -1.0934   0.01543   0.01070  -0.0449   0.9990   0.0151
 -11.600  -1.0812   0.01526   0.01051  -0.0453   0.9986   0.0153
 -11.500  -1.0689   0.01509   0.01033  -0.0456   0.9982   0.0155
 -11.400  -1.0567   0.01492   0.01015  -0.0460   0.9978   0.0156
 -11.300  -1.0443   0.01476   0.00998  -0.0464   0.9974   0.0158
 -11.200  -1.0320   0.01460   0.00980  -0.0468   0.9970   0.0160
 -11.100  -1.0195   0.01445   0.00964  -0.0472   0.9966   0.0161
 -11.000  -1.0069   0.01430   0.00947  -0.0476   0.9962   0.0162
 -10.900  -0.9942   0.01416   0.00932  -0.0480   0.9959   0.0163
 -10.800  -0.9815   0.01403   0.00917  -0.0484   0.9955   0.0164
 -10.700  -0.9697   0.01367   0.00878  -0.0488   0.9951   0.0168
 -10.600  -0.9574   0.01341   0.00851  -0.0492   0.9948   0.0171
 -10.500  -0.9448   0.01321   0.00830  -0.0497   0.9945   0.0174
 -10.400  -0.9320   0.01304   0.00812  -0.0502   0.9942   0.0177
 -10.300  -0.9191   0.01288   0.00796  -0.0507   0.9940   0.0180
 -10.200  -0.9068   0.01273   0.00781  -0.0510   0.9935   0.0182
 -10.100  -0.8951   0.01259   0.00766  -0.0512   0.9927   0.0184
 -10.000  -0.8830   0.01245   0.00751  -0.0514   0.9919   0.0187
  -9.900  -0.8708   0.01232   0.00737  -0.0518   0.9912   0.0189
  -9.800  -0.8583   0.01219   0.00723  -0.0521   0.9906   0.0192
  -9.700  -0.8457   0.01207   0.00709  -0.0525   0.9899   0.0194
  -9.600  -0.8329   0.01195   0.00697  -0.0529   0.9893   0.0195
  -9.500  -0.8199   0.01184   0.00685  -0.0533   0.9888   0.0197
  -9.400  -0.8074   0.01162   0.00661  -0.0537   0.9882   0.0201
  -9.300  -0.7947   0.01142   0.00640  -0.0542   0.9877   0.0207
  -9.200  -0.7817   0.01126   0.00625  -0.0547   0.9872   0.0211
  -9.100  -0.7687   0.01113   0.00611  -0.0551   0.9867   0.0215
  -9.000  -0.7557   0.01101   0.00599  -0.0556   0.9861   0.0219
  -8.900  -0.7427   0.01089   0.00587  -0.0560   0.9855   0.0223
  -8.800  -0.7298   0.01078   0.00575  -0.0564   0.9848   0.0227
  -8.700  -0.7170   0.01067   0.00564  -0.0568   0.9841   0.0230
  -8.600  -0.7040   0.01058   0.00553  -0.0573   0.9834   0.0232
  -8.500  -0.6924   0.01049   0.00544  -0.0573   0.9820   0.0234
  -8.400  -0.6823   0.01032   0.00525  -0.0572   0.9799   0.0240
  -8.300  -0.6715   0.01017   0.00510  -0.0571   0.9779   0.0247
  -8.200  -0.6604   0.01004   0.00498  -0.0571   0.9761   0.0253
  -8.100  -0.6491   0.00993   0.00487  -0.0571   0.9743   0.0258
  -8.000  -0.6375   0.00983   0.00477  -0.0572   0.9726   0.0263
  -7.900  -0.6259   0.00974   0.00467  -0.0573   0.9709   0.0268
  -7.800  -0.6156   0.00966   0.00458  -0.0571   0.9683   0.0272
  -7.700  -0.6054   0.00958   0.00449  -0.0569   0.9655   0.0275
  -7.600  -0.5949   0.00951   0.00440  -0.0567   0.9628   0.0278
  -7.500  -0.5845   0.00936   0.00425  -0.0566   0.9603   0.0289
  -7.400  -0.5738   0.00925   0.00415  -0.0564   0.9580   0.0297
  -7.300  -0.5632   0.00916   0.00406  -0.0563   0.9557   0.0305
  -7.200  -0.5526   0.00907   0.00397  -0.0562   0.9530   0.0312
  -7.100  -0.5420   0.00900   0.00389  -0.0561   0.9503   0.0318
  -7.000  -0.5312   0.00893   0.00381  -0.0559   0.9476   0.0323
  -6.900  -0.5204   0.00887   0.00374  -0.0558   0.9451   0.0327
  -6.800  -0.5099   0.00875   0.00361  -0.0557   0.9425   0.0341
  -6.700  -0.4992   0.00865   0.00352  -0.0556   0.9400   0.0351
  -6.600  -0.4884   0.00857   0.00344  -0.0555   0.9371   0.0360
  -6.500  -0.4776   0.00849   0.00336  -0.0554   0.9340   0.0369
  -6.400  -0.4667   0.00843   0.00329  -0.0553   0.9310   0.0377
  -6.300  -0.4558   0.00838   0.00322  -0.0552   0.9280   0.0382
  -6.200  -0.4452   0.00828   0.00312  -0.0550   0.9253   0.0402
  -6.100  -0.4343   0.00819   0.00304  -0.0550   0.9224   0.0416
  -6.000  -0.4233   0.00812   0.00297  -0.0549   0.9192   0.0429
  -5.900  -0.4124   0.00806   0.00291  -0.0548   0.9158   0.0440
  -5.700  -0.3906   0.00793   0.00275  -0.0546   0.9092   0.0469
  -5.600  -0.3796   0.00785   0.00268  -0.0546   0.9058   0.0488
  -5.500  -0.3686   0.00778   0.00262  -0.0545   0.9021   0.0504
  -5.400  -0.3576   0.00773   0.00256  -0.0545   0.8983   0.0517
  -5.300  -0.3467   0.00768   0.00249  -0.0544   0.8946   0.0536
  -5.200  -0.3357   0.00759   0.00242  -0.0543   0.8911   0.0564
  -5.100  -0.3246   0.00753   0.00236  -0.0543   0.8873   0.0586
  -5.000  -0.3135   0.00748   0.00231  -0.0542   0.8830   0.0603
  -4.900  -0.3026   0.00743   0.00224  -0.0541   0.8789   0.0631
  -4.800  -0.2916   0.00736   0.00218  -0.0541   0.8750   0.0661
  -4.700  -0.2805   0.00730   0.00213  -0.0541   0.8707   0.0687
  -4.600  -0.2693   0.00726   0.00208  -0.0540   0.8660   0.0705
  -4.500  -0.2585   0.00720   0.00201  -0.0539   0.8616   0.0750
  -4.400  -0.2474   0.00713   0.00196  -0.0539   0.8574   0.0786
  -4.300  -0.2362   0.00709   0.00192  -0.0539   0.8527   0.0812
  -4.200  -0.2252   0.00704   0.00186  -0.0538   0.8477   0.0858
  -4.100  -0.2142   0.00698   0.00181  -0.0537   0.8432   0.0899
  -4.000  -0.2029   0.00694   0.00177  -0.0537   0.8383   0.0932
  -3.900  -0.1919   0.00689   0.00172  -0.0537   0.8330   0.0984
  -3.800  -0.1810   0.00684   0.00167  -0.0536   0.8279   0.1035
  -3.600  -0.1587   0.00674   0.00159  -0.0535   0.8176   0.1139
  -3.500  -0.1477   0.00671   0.00155  -0.0535   0.8121   0.1189
  -3.400  -0.1364   0.00666   0.00151  -0.0535   0.8069   0.1244
  -3.300  -0.1254   0.00661   0.00147  -0.0534   0.8012   0.1311
  -3.100  -0.1032   0.00653   0.00140  -0.0533   0.7903   0.1444
  -3.000  -0.0920   0.00650   0.00137  -0.0533   0.7841   0.1501
  -2.900  -0.0811   0.00646   0.00133  -0.0533   0.7782   0.1584
  -2.800  -0.0698   0.00642   0.00131  -0.0533   0.7725   0.1652
  -2.700  -0.0588   0.00637   0.00127  -0.0532   0.7662   0.1738
  -2.600  -0.0477   0.00635   0.00125  -0.0532   0.7606   0.1809
  -2.500  -0.0365   0.00630   0.00122  -0.0532   0.7543   0.1898
  -2.400  -0.0255   0.00628   0.00120  -0.0531   0.7477   0.1976
  -2.300  -0.0144   0.00624   0.00117  -0.0531   0.7419   0.2075
  -2.200  -0.0032   0.00621   0.00115  -0.0531   0.7354   0.2159
  -2.100   0.0078   0.00618   0.00113  -0.0530   0.7289   0.2259
  -2.000   0.0190   0.00614   0.00111  -0.0530   0.7227   0.2357
  -1.900   0.0301   0.00612   0.00109  -0.0530   0.7158   0.2453
  -1.800   0.0412   0.00608   0.00107  -0.0530   0.7097   0.2557
  -1.700   0.0524   0.00606   0.00105  -0.0529   0.7029   0.2654
  -1.600   0.0634   0.00604   0.00104  -0.0529   0.6962   0.2765
  -1.500   0.0746   0.00600   0.00103  -0.0529   0.6896   0.2883
  -1.400   0.0857   0.00598   0.00101  -0.0529   0.6828   0.2992
  -1.300   0.0968   0.00596   0.00100  -0.0528   0.6767   0.3113
  -1.200   0.1079   0.00592   0.00099  -0.0528   0.6697   0.3240
  -1.100   0.1189   0.00591   0.00098  -0.0528   0.6628   0.3360
  -1.000   0.1301   0.00588   0.00097  -0.0528   0.6564   0.3486
  -0.900   0.1411   0.00585   0.00096  -0.0527   0.6495   0.3631
  -0.800   0.1522   0.00582   0.00096  -0.0527   0.6431   0.3780
  -0.700   0.1633   0.00578   0.00095  -0.0527   0.6363   0.3941
  -0.600   0.1742   0.00575   0.00095  -0.0527   0.6295   0.4124
  -0.500   0.1852   0.00570   0.00094  -0.0526   0.6231   0.4328
  -0.400   0.1961   0.00566   0.00094  -0.0526   0.6161   0.4551
  -0.300   0.2071   0.00561   0.00094  -0.0526   0.6100   0.4771
  -0.200   0.2181   0.00557   0.00094  -0.0525   0.6030   0.4987
  -0.100   0.2289   0.00554   0.00095  -0.0525   0.5967   0.5206
  -0.000   0.2400   0.00549   0.00095  -0.0525   0.5907   0.5407
   0.100   0.2509   0.00547   0.00096  -0.0524   0.5837   0.5615
   0.200   0.2619   0.00544   0.00096  -0.0524   0.5779   0.5801
   0.300   0.2730   0.00542   0.00097  -0.0523   0.5715   0.5994
   0.400   0.2839   0.00541   0.00098  -0.0523   0.5648   0.6166
   0.500   0.2949   0.00537   0.00099  -0.0522   0.5594   0.6363
   0.600   0.3058   0.00535   0.00100  -0.0522   0.5528   0.6545
   0.700   0.3167   0.00534   0.00102  -0.0521   0.5470   0.6727
   0.800   0.3278   0.00531   0.00103  -0.0520   0.5414   0.6907
   0.900   0.3387   0.00530   0.00104  -0.0520   0.5353   0.7078
   1.000   0.3496   0.00529   0.00106  -0.0519   0.5296   0.7248
   1.100   0.3605   0.00526   0.00108  -0.0518   0.5241   0.7434
   1.200   0.3712   0.00525   0.00110  -0.0517   0.5179   0.7611
   1.300   0.3821   0.00524   0.00112  -0.0516   0.5129   0.7773
   1.400   0.3929   0.00522   0.00114  -0.0515   0.5074   0.7949
   1.500   0.4035   0.00522   0.00116  -0.0513   0.5015   0.8115
   1.600   0.4142   0.00521   0.00118  -0.0512   0.4965   0.8277
   1.700   0.4249   0.00520   0.00121  -0.0510   0.4913   0.8437
   1.800   0.4354   0.00521   0.00124  -0.0508   0.4856   0.8591
   1.900   0.4459   0.00521   0.00126  -0.0506   0.4807   0.8740
   2.000   0.4565   0.00521   0.00129  -0.0504   0.4757   0.8878
   2.100   0.4667   0.00522   0.00132  -0.0501   0.4702   0.9014
   2.200   0.4768   0.00524   0.00135  -0.0498   0.4651   0.9138
   2.300   0.4873   0.00526   0.00138  -0.0496   0.4602   0.9247
   2.400   0.4975   0.00528   0.00141  -0.0493   0.4547   0.9356
   2.500   0.5078   0.00532   0.00144  -0.0491   0.4492   0.9444
   2.600   0.5186   0.00535   0.00147  -0.0489   0.4444   0.9531
   2.700   0.5297   0.00539   0.00150  -0.0488   0.4386   0.9600
   2.800   0.5408   0.00545   0.00153  -0.0488   0.4329   0.9667
   2.900   0.5529   0.00548   0.00156  -0.0489   0.4278   0.9717
   3.000   0.5656   0.00554   0.00159  -0.0492   0.4213   0.9760
   3.100   0.5778   0.00559   0.00162  -0.0494   0.4155   0.9803
   3.200   0.5903   0.00564   0.00165  -0.0497   0.4093   0.9836
   3.400   0.6179   0.00576   0.00172  -0.0509   0.3951   0.9880
   3.500   0.6310   0.00584   0.00175  -0.0513   0.3872   0.9902
   3.600   0.6444   0.00590   0.00179  -0.0518   0.3798   0.9921
   3.700   0.6575   0.00599   0.00183  -0.0523   0.3711   0.9937
   3.800   0.6722   0.00605   0.00187  -0.0530   0.3631   0.9945
   3.900   0.6866   0.00615   0.00192  -0.0538   0.3532   0.9953
   4.000   0.7012   0.00622   0.00196  -0.0546   0.3444   0.9962
   4.100   0.7157   0.00632   0.00201  -0.0554   0.3349   0.9973
   4.200   0.7302   0.00642   0.00206  -0.0562   0.3249   0.9983
   4.300   0.7450   0.00651   0.00212  -0.0570   0.3149   0.9993
   4.400   0.7592   0.00663   0.00218  -0.0577   0.3043   1.0000
   4.500   0.7685   0.00671   0.00223  -0.0574   0.2954   1.0000
   4.600   0.7776   0.00680   0.00228  -0.0570   0.2865   1.0000
   4.700   0.7867   0.00691   0.00234  -0.0566   0.2765   1.0000
   4.800   0.7960   0.00700   0.00239  -0.0562   0.2678   1.0000
   4.900   0.8050   0.00711   0.00245  -0.0558   0.2581   1.0000
   5.000   0.8142   0.00721   0.00251  -0.0554   0.2483   1.0000
   5.100   0.8234   0.00732   0.00258  -0.0550   0.2394   1.0000
   5.200   0.8323   0.00745   0.00265  -0.0546   0.2286   1.0000
   5.300   0.8416   0.00755   0.00272  -0.0542   0.2195   1.0000
   5.400   0.8507   0.00768   0.00280  -0.0538   0.2097   1.0000
   5.500   0.8596   0.00782   0.00288  -0.0534   0.1993   1.0000
   5.600   0.8690   0.00792   0.00295  -0.0531   0.1907   1.0000
   5.700   0.8780   0.00806   0.00303  -0.0527   0.1810   1.0000
   5.800   0.8871   0.00820   0.00312  -0.0523   0.1713   1.0000
   5.900   0.8965   0.00832   0.00320  -0.0520   0.1628   1.0000
   6.000   0.9057   0.00847   0.00330  -0.0516   0.1535   1.0000
   6.100   0.9153   0.00858   0.00338  -0.0513   0.1462   1.0000
   6.200   0.9246   0.00872   0.00348  -0.0510   0.1379   1.0000
   6.300   0.9341   0.00886   0.00357  -0.0507   0.1302   1.0000
   6.400   0.9436   0.00899   0.00367  -0.0504   0.1225   1.0000
   6.500   0.9530   0.00914   0.00377  -0.0501   0.1149   1.0000
   6.600   0.9627   0.00926   0.00386  -0.0499   0.1089   1.0000
   6.700   0.9723   0.00941   0.00397  -0.0496   0.1025   1.0000
   6.800   0.9820   0.00953   0.00406  -0.0494   0.0971   1.0000
   6.900   0.9917   0.00967   0.00417  -0.0491   0.0916   1.0000
   7.000   1.0013   0.00981   0.00428  -0.0489   0.0861   1.0000
   7.100   1.0111   0.00993   0.00437  -0.0486   0.0817   1.0000
   7.200   1.0206   0.01009   0.00449  -0.0484   0.0763   1.0000
   7.300   1.0306   0.01019   0.00459  -0.0482   0.0732   1.0000
   7.400   1.0403   0.01032   0.00469  -0.0480   0.0696   1.0000
   7.500   1.0499   0.01047   0.00481  -0.0477   0.0653   1.0000
   7.600   1.0599   0.01057   0.00491  -0.0475   0.0631   1.0000
   7.700   1.0697   0.01070   0.00502  -0.0473   0.0601   1.0000
   7.800   1.0792   0.01086   0.00515  -0.0470   0.0565   1.0000
   7.900   1.0892   0.01096   0.00525  -0.0469   0.0545   1.0000
   8.000   1.0990   0.01109   0.00536  -0.0466   0.0522   1.0000
   8.100   1.1085   0.01124   0.00548  -0.0464   0.0495   1.0000
   8.200   1.1182   0.01136   0.00560  -0.0462   0.0474   1.0000
   8.300   1.1281   0.01147   0.00571  -0.0460   0.0460   1.0000
   8.400   1.1378   0.01160   0.00582  -0.0458   0.0442   1.0000
   8.500   1.1473   0.01175   0.00596  -0.0455   0.0423   1.0000
   8.600   1.1569   0.01189   0.00609  -0.0453   0.0405   1.0000
   8.700   1.1668   0.01199   0.00620  -0.0451   0.0395   1.0000
   8.800   1.1764   0.01212   0.00632  -0.0449   0.0382   1.0000
   8.900   1.1858   0.01227   0.00645  -0.0446   0.0368   1.0000
   9.000   1.1951   0.01243   0.00660  -0.0443   0.0351   1.0000
   9.100   1.2048   0.01255   0.00672  -0.0441   0.0341   1.0000
   9.200   1.2145   0.01266   0.00684  -0.0439   0.0334   1.0000
   9.300   1.2240   0.01280   0.00697  -0.0436   0.0324   1.0000
   9.400   1.2333   0.01294   0.00711  -0.0434   0.0315   1.0000
   9.500   1.2424   0.01311   0.00726  -0.0431   0.0303   1.0000
   9.600   1.2514   0.01328   0.00743  -0.0428   0.0292   1.0000
   9.700   1.2610   0.01339   0.00755  -0.0425   0.0288   1.0000
   9.800   1.2705   0.01351   0.00768  -0.0423   0.0282   1.0000
   9.900   1.2798   0.01365   0.00782  -0.0420   0.0276   1.0000
  10.000   1.2889   0.01380   0.00796  -0.0417   0.0269   1.0000
  10.100   1.2978   0.01396   0.00812  -0.0414   0.0262   1.0000
  10.200   1.3064   0.01414   0.00830  -0.0411   0.0254   1.0000
  10.300   1.3150   0.01433   0.00849  -0.0407   0.0246   1.0000
  10.400   1.3243   0.01445   0.00862  -0.0404   0.0243   1.0000
  10.500   1.3335   0.01458   0.00876  -0.0401   0.0239   1.0000
  10.600   1.3424   0.01472   0.00891  -0.0398   0.0234   1.0000
  10.700   1.3512   0.01488   0.00907  -0.0395   0.0229   1.0000
  10.800   1.3598   0.01504   0.00923  -0.0391   0.0224   1.0000
  10.900   1.3681   0.01523   0.00941  -0.0387   0.0220   1.0000
  11.000   1.3762   0.01542   0.00961  -0.0383   0.0214   1.0000
  11.100   1.3837   0.01566   0.00985  -0.0378   0.0207   1.0000
  11.200   1.3922   0.01581   0.01002  -0.0374   0.0205   1.0000
  11.300   1.4009   0.01596   0.01018  -0.0370   0.0203   1.0000
  11.400   1.4093   0.01611   0.01034  -0.0367   0.0200   1.0000
  11.500   1.4176   0.01627   0.01051  -0.0363   0.0198   1.0000
  11.600   1.4257   0.01644   0.01069  -0.0358   0.0195   1.0000
  11.700   1.4335   0.01662   0.01088  -0.0354   0.0191   1.0000
  11.800   1.4410   0.01681   0.01107  -0.0349   0.0188   1.0000
  11.900   1.4483   0.01701   0.01128  -0.0343   0.0185   1.0000
  12.000   1.4548   0.01722   0.01149  -0.0336   0.0182   1.0000
  12.100   1.4607   0.01745   0.01173  -0.0328   0.0178   1.0000
  12.200   1.4659   0.01772   0.01201  -0.0319   0.0174   1.0000
  12.300   1.4715   0.01797   0.01228  -0.0311   0.0171   1.0000
  12.400   1.4783   0.01815   0.01247  -0.0305   0.0170   1.0000
  12.500   1.4851   0.01833   0.01267  -0.0298   0.0169   1.0000
  12.600   1.4918   0.01852   0.01287  -0.0292   0.0167   1.0000
  12.700   1.4982   0.01872   0.01309  -0.0286   0.0165   1.0000
  12.800   1.5045   0.01894   0.01332  -0.0279   0.0163   1.0000
  12.900   1.5106   0.01916   0.01356  -0.0273   0.0161   1.0000
  13.000   1.5167   0.01939   0.01380  -0.0266   0.0159   1.0000
  13.100   1.5224   0.01965   0.01407  -0.0259   0.0157   1.0000
  13.200   1.5280   0.01991   0.01435  -0.0252   0.0155   1.0000
  13.300   1.5334   0.02020   0.01464  -0.0245   0.0153   1.0000
  13.400   1.5386   0.02049   0.01495  -0.0238   0.0151   1.0000
  13.500   1.5434   0.02082   0.01529  -0.0231   0.0149   1.0000
  13.600   1.5478   0.02117   0.01566  -0.0223   0.0147   1.0000
  13.700   1.5514   0.02158   0.01609  -0.0215   0.0144   1.0000
  13.800   1.5539   0.02207   0.01661  -0.0205   0.0141   1.0000
  13.900   1.5591   0.02239   0.01695  -0.0199   0.0141   1.0000
  14.000   1.5644   0.02270   0.01728  -0.0193   0.0140   1.0000
  14.100   1.5698   0.02301   0.01761  -0.0188   0.0139   1.0000
  14.200   1.5749   0.02335   0.01797  -0.0182   0.0138   1.0000
  14.300   1.5799   0.02370   0.01834  -0.0176   0.0137   1.0000
  14.400   1.5847   0.02407   0.01873  -0.0170   0.0136   1.0000
  14.500   1.5891   0.02446   0.01915  -0.0165   0.0135   1.0000
  14.600   1.5936   0.02486   0.01956  -0.0159   0.0134   1.0000
  14.700   1.5978   0.02529   0.02001  -0.0153   0.0133   1.0000
  14.800   1.6020   0.02572   0.02047  -0.0148   0.0132   1.0000
  14.900   1.6061   0.02617   0.02094  -0.0143   0.0131   1.0000
  15.000   1.6099   0.02665   0.02144  -0.0138   0.0129   1.0000
