  
       XFOIL         Version 6.99
  
 Calculated polar for: NACA 2412                                       
  
 1 1 Reynolds number fixed          Mach number fixed         
  
 xtrf =   1.000 (top)        1.000 (bottom)  
 Mach =   0.000     Re =     2.100 e 6     Ncrit =   9.000
  
   alpha    CL        CD       CDp       CM     Top_Xtr  Bot_Xtr
  ------ -------- --------- --------- -------- -------- --------
 -14.700  -1.3241   0.02098   0.01684  -0.0594   1.0000   0.0111
 -14.600  -1.3191   0.02053   0.01635  -0.0588   1.0000   0.0112
 -14.500  -1.3133   0.02015   0.01594  -0.0582   1.0000   0.0114
 -14.400  -1.3072   0.01981   0.01557  -0.0576   1.0000   0.0115
 -14.300  -1.3007   0.01950   0.01525  -0.0570   1.0000   0.0116
 -14.200  -1.2939   0.01922   0.01495  -0.0565   1.0000   0.0117
 -14.100  -1.2872   0.01897   0.01467  -0.0559   1.0000   0.0118
 -14.000  -1.2803   0.01873   0.01442  -0.0553   1.0000   0.0119
 -13.900  -1.2734   0.01850   0.01418  -0.0547   1.0000   0.0120
 -13.800  -1.2665   0.01828   0.01394  -0.0541   1.0000   0.0120
 -13.700  -1.2595   0.01806   0.01371  -0.0535   1.0000   0.0121
 -13.600  -1.2525   0.01786   0.01350  -0.0529   1.0000   0.0122
 -13.500  -1.2456   0.01767   0.01329  -0.0523   1.0000   0.0123
 -13.400  -1.2387   0.01747   0.01308  -0.0516   1.0000   0.0124
 -13.300  -1.2318   0.01729   0.01288  -0.0509   1.0000   0.0125
 -13.200  -1.2250   0.01711   0.01268  -0.0503   1.0000   0.0126
 -13.100  -1.2182   0.01693   0.01249  -0.0495   1.0000   0.0127
 -13.000  -1.2114   0.01675   0.01230  -0.0488   1.0000   0.0127
 -12.900  -1.2047   0.01658   0.01211  -0.0481   1.0000   0.0128
 -12.800  -1.1979   0.01642   0.01193  -0.0474   1.0000   0.0129
 -12.700  -1.1911   0.01626   0.01175  -0.0466   1.0000   0.0130
 -12.600  -1.1843   0.01610   0.01158  -0.0459   1.0000   0.0131
 -12.500  -1.1775   0.01594   0.01141  -0.0452   1.0000   0.0131
 -12.400  -1.1659   0.01577   0.01122  -0.0454   0.9998   0.0132
 -12.300  -1.1540   0.01560   0.01104  -0.0457   0.9995   0.0133
 -12.200  -1.1421   0.01544   0.01086  -0.0460   0.9992   0.0134
 -12.100  -1.1301   0.01528   0.01069  -0.0464   0.9989   0.0134
 -12.000  -1.1181   0.01510   0.01050  -0.0467   0.9986   0.0135
 -11.900  -1.1071   0.01474   0.01010  -0.0469   0.9982   0.0138
 -11.800  -1.0956   0.01446   0.00979  -0.0472   0.9978   0.0141
 -11.700  -1.0838   0.01423   0.00955  -0.0476   0.9974   0.0143
 -11.600  -1.0717   0.01404   0.00935  -0.0479   0.9970   0.0145
 -11.500  -1.0595   0.01386   0.00917  -0.0483   0.9966   0.0147
 -11.400  -1.0473   0.01369   0.00900  -0.0486   0.9963   0.0149
 -11.300  -1.0349   0.01353   0.00883  -0.0490   0.9959   0.0151
 -11.200  -1.0224   0.01338   0.00868  -0.0494   0.9956   0.0153
 -11.100  -1.0099   0.01324   0.00852  -0.0498   0.9953   0.0155
 -11.000  -0.9973   0.01310   0.00837  -0.0502   0.9950   0.0156
 -10.900  -0.9846   0.01296   0.00822  -0.0507   0.9947   0.0158
 -10.800  -0.9719   0.01282   0.00807  -0.0511   0.9945   0.0160
 -10.700  -0.9591   0.01268   0.00793  -0.0515   0.9942   0.0161
 -10.600  -0.9462   0.01256   0.00779  -0.0520   0.9940   0.0162
 -10.500  -0.9333   0.01244   0.00766  -0.0524   0.9938   0.0163
 -10.400  -0.9218   0.01232   0.00754  -0.0526   0.9930   0.0164
 -10.300  -0.9107   0.01206   0.00725  -0.0527   0.9922   0.0168
 -10.200  -0.8989   0.01186   0.00705  -0.0529   0.9915   0.0172
 -10.100  -0.8868   0.01170   0.00688  -0.0532   0.9908   0.0175
 -10.000  -0.8744   0.01155   0.00673  -0.0536   0.9902   0.0178
  -9.900  -0.8619   0.01142   0.00659  -0.0540   0.9897   0.0181
  -9.800  -0.8492   0.01129   0.00646  -0.0544   0.9891   0.0184
  -9.700  -0.8365   0.01116   0.00633  -0.0548   0.9886   0.0186
  -9.600  -0.8239   0.01105   0.00621  -0.0551   0.9879   0.0189
  -9.500  -0.8113   0.01093   0.00609  -0.0555   0.9873   0.0191
  -9.400  -0.7987   0.01082   0.00597  -0.0558   0.9865   0.0193
  -9.300  -0.7862   0.01072   0.00587  -0.0562   0.9858   0.0195
  -9.200  -0.7737   0.01063   0.00577  -0.0565   0.9850   0.0197
  -9.100  -0.7614   0.01047   0.00559  -0.0568   0.9842   0.0201
  -9.000  -0.7491   0.01030   0.00542  -0.0571   0.9834   0.0207
  -8.900  -0.7385   0.01018   0.00531  -0.0570   0.9817   0.0212
  -8.800  -0.7282   0.01007   0.00520  -0.0569   0.9796   0.0216
  -8.700  -0.7175   0.00997   0.00510  -0.0568   0.9776   0.0220
  -8.600  -0.7067   0.00987   0.00500  -0.0567   0.9757   0.0223
  -8.500  -0.6955   0.00978   0.00490  -0.0567   0.9739   0.0227
  -8.400  -0.6843   0.00970   0.00480  -0.0567   0.9721   0.0230
  -8.300  -0.6731   0.00962   0.00471  -0.0567   0.9702   0.0232
  -8.200  -0.6630   0.00955   0.00463  -0.0565   0.9675   0.0234
  -8.100  -0.6530   0.00942   0.00450  -0.0562   0.9647   0.0240
  -8.000  -0.6427   0.00930   0.00437  -0.0560   0.9619   0.0247
  -7.900  -0.6323   0.00920   0.00427  -0.0558   0.9593   0.0253
  -7.800  -0.6217   0.00911   0.00417  -0.0557   0.9568   0.0259
  -7.700  -0.6111   0.00902   0.00409  -0.0556   0.9543   0.0263
  -7.600  -0.6004   0.00894   0.00401  -0.0555   0.9515   0.0268
  -7.500  -0.5897   0.00887   0.00393  -0.0553   0.9488   0.0272
  -7.400  -0.5789   0.00881   0.00385  -0.0552   0.9461   0.0276
  -7.300  -0.5683   0.00873   0.00376  -0.0551   0.9435   0.0282
  -7.200  -0.5577   0.00862   0.00365  -0.0550   0.9410   0.0292
  -7.100  -0.5469   0.00853   0.00357  -0.0549   0.9385   0.0301
  -7.000  -0.5360   0.00845   0.00349  -0.0548   0.9356   0.0309
  -6.900  -0.5252   0.00838   0.00341  -0.0547   0.9326   0.0315
  -6.800  -0.5143   0.00832   0.00334  -0.0546   0.9295   0.0321
  -6.700  -0.5035   0.00827   0.00327  -0.0545   0.9265   0.0325
  -6.600  -0.4926   0.00818   0.00318  -0.0545   0.9238   0.0336
  -6.500  -0.4816   0.00809   0.00309  -0.0544   0.9208   0.0349
  -6.400  -0.4707   0.00802   0.00302  -0.0543   0.9176   0.0359
  -6.300  -0.4598   0.00795   0.00295  -0.0543   0.9143   0.0368
  -6.200  -0.4489   0.00790   0.00289  -0.0542   0.9110   0.0376
  -6.100  -0.4377   0.00786   0.00283  -0.0541   0.9080   0.0382
  -6.000  -0.4267   0.00776   0.00274  -0.0541   0.9046   0.0402
  -5.900  -0.4158   0.00769   0.00267  -0.0540   0.9008   0.0417
  -5.800  -0.4048   0.00763   0.00261  -0.0539   0.8970   0.0430
  -5.700  -0.3939   0.00758   0.00255  -0.0539   0.8933   0.0440
  -5.600  -0.3826   0.00753   0.00249  -0.0539   0.8899   0.0449
  -5.500  -0.3716   0.00746   0.00242  -0.0538   0.8860   0.0472
  -5.400  -0.3606   0.00739   0.00236  -0.0537   0.8817   0.0491
  -5.300  -0.3496   0.00735   0.00230  -0.0537   0.8777   0.0507
  -5.200  -0.3384   0.00730   0.00225  -0.0537   0.8741   0.0519
  -5.100  -0.3272   0.00724   0.00218  -0.0536   0.8698   0.0543
  -5.000  -0.3163   0.00717   0.00212  -0.0536   0.8650   0.0571
  -4.900  -0.3053   0.00713   0.00207  -0.0535   0.8606   0.0592
  -4.800  -0.2940   0.00709   0.00202  -0.0535   0.8564   0.0606
  -4.700  -0.2829   0.00703   0.00197  -0.0535   0.8517   0.0641
  -4.600  -0.2719   0.00698   0.00191  -0.0534   0.8468   0.0669
  -4.500  -0.2607   0.00693   0.00187  -0.0534   0.8425   0.0693
  -4.400  -0.2495   0.00689   0.00182  -0.0533   0.8376   0.0717
  -4.300  -0.2385   0.00683   0.00177  -0.0533   0.8323   0.0761
  -4.200  -0.2274   0.00679   0.00172  -0.0532   0.8273   0.0795
  -4.000  -0.2050   0.00670   0.00163  -0.0532   0.8171   0.0869
  -3.900  -0.1940   0.00666   0.00159  -0.0531   0.8116   0.0908
  -3.800  -0.1827   0.00663   0.00156  -0.0532   0.8065   0.0936
  -3.700  -0.1716   0.00657   0.00151  -0.0531   0.8007   0.0998
  -3.600  -0.1606   0.00654   0.00147  -0.0531   0.7951   0.1046
  -3.500  -0.1492   0.00651   0.00144  -0.0531   0.7898   0.1085
  -3.400  -0.1382   0.00645   0.00140  -0.0530   0.7838   0.1147
  -3.300  -0.1271   0.00643   0.00137  -0.0530   0.7781   0.1194
  -3.200  -0.1158   0.00639   0.00133  -0.0530   0.7724   0.1254
  -3.100  -0.1047   0.00635   0.00130  -0.0530   0.7661   0.1320
  -3.000  -0.0935   0.00633   0.00127  -0.0529   0.7605   0.1371
  -2.900  -0.0824   0.00627   0.00124  -0.0529   0.7543   0.1448
  -2.800  -0.0712   0.00626   0.00121  -0.0529   0.7478   0.1501
  -2.700  -0.0601   0.00621   0.00118  -0.0529   0.7421   0.1585
  -2.600  -0.0488   0.00618   0.00116  -0.0529   0.7354   0.1653
  -2.500  -0.0378   0.00615   0.00113  -0.0528   0.7292   0.1737
  -2.400  -0.0265   0.00612   0.00111  -0.0528   0.7231   0.1806
  -2.300  -0.0154   0.00609   0.00109  -0.0528   0.7162   0.1891
  -2.200  -0.0042   0.00607   0.00107  -0.0528   0.7101   0.1970
  -2.100   0.0070   0.00603   0.00104  -0.0528   0.7036   0.2068
  -1.900   0.0293   0.00598   0.00101  -0.0528   0.6907   0.2247
  -1.800   0.0405   0.00596   0.00099  -0.0527   0.6834   0.2341
  -1.700   0.0516   0.00594   0.00098  -0.0527   0.6770   0.2433
  -1.600   0.0629   0.00591   0.00096  -0.0527   0.6704   0.2524
  -1.400   0.0852   0.00586   0.00094  -0.0527   0.6576   0.2737
  -1.300   0.0964   0.00585   0.00093  -0.0527   0.6505   0.2841
  -1.200   0.1076   0.00583   0.00092  -0.0527   0.6441   0.2951
  -1.100   0.1187   0.00580   0.00091  -0.0527   0.6372   0.3078
  -1.000   0.1298   0.00579   0.00091  -0.0527   0.6304   0.3186
  -0.800   0.1522   0.00574   0.00089  -0.0527   0.6171   0.3431
  -0.700   0.1634   0.00571   0.00089  -0.0527   0.6111   0.3570
  -0.600   0.1745   0.00569   0.00088  -0.0527   0.6044   0.3701
  -0.500   0.1856   0.00567   0.00088  -0.0526   0.5976   0.3846
  -0.400   0.1968   0.00563   0.00088  -0.0526   0.5918   0.4019
  -0.300   0.2078   0.00560   0.00088  -0.0526   0.5852   0.4205
  -0.200   0.2188   0.00556   0.00088  -0.0526   0.5789   0.4408
  -0.100   0.2299   0.00551   0.00088  -0.0526   0.5728   0.4639
  -0.000   0.2408   0.00548   0.00088  -0.0526   0.5662   0.4848
   0.100   0.2519   0.00544   0.00088  -0.0525   0.5608   0.5051
   0.200   0.2630   0.00541   0.00089  -0.0525   0.5543   0.5250
   0.300   0.2739   0.00539   0.00090  -0.0525   0.5478   0.5459
   0.400   0.2851   0.00536   0.00091  -0.0525   0.5425   0.5645
   0.500   0.2962   0.00534   0.00092  -0.0525   0.5365   0.5824
   0.600   0.3072   0.00532   0.00093  -0.0524   0.5306   0.6001
   0.700   0.3184   0.00529   0.00094  -0.0524   0.5255   0.6188
   0.800   0.3294   0.00528   0.00095  -0.0524   0.5195   0.6359
   0.900   0.3404   0.00526   0.00096  -0.0523   0.5139   0.6535
   1.000   0.3516   0.00524   0.00098  -0.0523   0.5086   0.6702
   1.100   0.3626   0.00523   0.00099  -0.0523   0.5030   0.6873
   1.200   0.3735   0.00522   0.00101  -0.0522   0.4975   0.7053
   1.300   0.3846   0.00520   0.00103  -0.0522   0.4927   0.7220
   1.400   0.3956   0.00519   0.00104  -0.0521   0.4872   0.7385
   1.500   0.4065   0.00518   0.00106  -0.0520   0.4818   0.7557
   1.600   0.4175   0.00516   0.00108  -0.0520   0.4771   0.7726
   1.700   0.4283   0.00515   0.00111  -0.0519   0.4716   0.7899
   1.800   0.4391   0.00516   0.00113  -0.0518   0.4661   0.8059
   1.900   0.4500   0.00514   0.00115  -0.0517   0.4619   0.8223
   2.000   0.4608   0.00514   0.00118  -0.0515   0.4566   0.8376
   2.100   0.4713   0.00515   0.00120  -0.0514   0.4508   0.8532
   2.200   0.4820   0.00513   0.00123  -0.0512   0.4466   0.8685
   2.300   0.4925   0.00513   0.00126  -0.0510   0.4414   0.8829
   2.400   0.5029   0.00516   0.00129  -0.0508   0.4355   0.8951
   2.500   0.5135   0.00517   0.00132  -0.0506   0.4309   0.9076
   2.600   0.5238   0.00518   0.00135  -0.0503   0.4256   0.9200
   2.700   0.5338   0.00521   0.00138  -0.0500   0.4196   0.9307
   2.800   0.5443   0.00524   0.00141  -0.0498   0.4146   0.9402
   2.900   0.5546   0.00527   0.00144  -0.0495   0.4088   0.9494
   3.000   0.5650   0.00532   0.00148  -0.0493   0.4021   0.9568
   3.100   0.5761   0.00536   0.00150  -0.0492   0.3967   0.9637
   3.200   0.5869   0.00541   0.00154  -0.0491   0.3895   0.9698
   3.300   0.5992   0.00547   0.00157  -0.0493   0.3827   0.9742
   3.400   0.6113   0.00553   0.00160  -0.0495   0.3754   0.9787
   3.500   0.6226   0.00560   0.00164  -0.0496   0.3675   0.9828
   3.600   0.6362   0.00567   0.00168  -0.0501   0.3591   0.9850
   3.700   0.6495   0.00575   0.00172  -0.0506   0.3506   0.9873
   3.800   0.6623   0.00583   0.00176  -0.0510   0.3415   0.9897
   3.900   0.6749   0.00590   0.00181  -0.0513   0.3335   0.9920
   4.000   0.6874   0.00600   0.00186  -0.0516   0.3235   0.9938
   4.100   0.7019   0.00608   0.00190  -0.0524   0.3149   0.9945
   4.200   0.7160   0.00619   0.00196  -0.0531   0.3046   0.9953
   4.300   0.7302   0.00629   0.00201  -0.0538   0.2939   0.9962
   4.400   0.7445   0.00638   0.00206  -0.0546   0.2845   0.9971
   4.500   0.7586   0.00650   0.00213  -0.0553   0.2732   0.9981
   4.600   0.7729   0.00662   0.00220  -0.0560   0.2618   0.9990
   4.700   0.7874   0.00673   0.00226  -0.0568   0.2513   0.9998
   4.800   0.7980   0.00685   0.00232  -0.0568   0.2412   1.0000
   4.900   0.8070   0.00695   0.00238  -0.0563   0.2317   1.0000
   5.000   0.8162   0.00705   0.00244  -0.0559   0.2232   1.0000
   5.100   0.8250   0.00717   0.00251  -0.0555   0.2129   1.0000
   5.200   0.8342   0.00728   0.00258  -0.0551   0.2036   1.0000
   5.300   0.8433   0.00739   0.00265  -0.0547   0.1948   1.0000
   5.400   0.8522   0.00752   0.00272  -0.0543   0.1853   1.0000
   5.500   0.8615   0.00763   0.00279  -0.0539   0.1763   1.0000
   5.600   0.8705   0.00776   0.00287  -0.0535   0.1671   1.0000
   5.700   0.8797   0.00788   0.00295  -0.0531   0.1585   1.0000
   5.800   0.8890   0.00799   0.00303  -0.0528   0.1508   1.0000
   5.900   0.8981   0.00812   0.00311  -0.0524   0.1427   1.0000
   6.000   0.9077   0.00823   0.00319  -0.0521   0.1358   1.0000
   6.100   0.9168   0.00837   0.00329  -0.0517   0.1274   1.0000
   6.200   0.9265   0.00848   0.00336  -0.0515   0.1210   1.0000
   6.300   0.9358   0.00863   0.00346  -0.0511   0.1129   1.0000
   6.400   0.9456   0.00873   0.00354  -0.0509   0.1076   1.0000
   6.500   0.9551   0.00888   0.00364  -0.0506   0.1009   1.0000
   6.600   0.9650   0.00898   0.00372  -0.0504   0.0963   1.0000
   6.700   0.9746   0.00911   0.00382  -0.0501   0.0907   1.0000
   6.800   0.9844   0.00923   0.00391  -0.0499   0.0856   1.0000
   6.900   0.9943   0.00935   0.00401  -0.0497   0.0811   1.0000
   7.000   1.0039   0.00949   0.00412  -0.0494   0.0756   1.0000
   7.100   1.0140   0.00959   0.00420  -0.0492   0.0728   1.0000
   7.200   1.0238   0.00971   0.00430  -0.0490   0.0692   1.0000
   7.300   1.0336   0.00985   0.00440  -0.0488   0.0651   1.0000
   7.400   1.0437   0.00994   0.00449  -0.0486   0.0628   1.0000
   7.500   1.0536   0.01007   0.00459  -0.0484   0.0599   1.0000
   7.600   1.0632   0.01021   0.00471  -0.0482   0.0560   1.0000
   7.700   1.0734   0.01030   0.00480  -0.0480   0.0543   1.0000
   7.800   1.0833   0.01042   0.00490  -0.0478   0.0519   1.0000
   7.900   1.0929   0.01056   0.00502  -0.0476   0.0491   1.0000
   8.000   1.1029   0.01067   0.00512  -0.0474   0.0472   1.0000
   8.100   1.1130   0.01077   0.00521  -0.0472   0.0458   1.0000
   8.200   1.1228   0.01089   0.00532  -0.0470   0.0440   1.0000
   8.300   1.1324   0.01103   0.00544  -0.0468   0.0419   1.0000
   8.400   1.1423   0.01115   0.00555  -0.0466   0.0403   1.0000
   8.500   1.1523   0.01125   0.00565  -0.0464   0.0393   1.0000
   8.600   1.1621   0.01137   0.00577  -0.0462   0.0379   1.0000
   8.700   1.1717   0.01151   0.00589  -0.0460   0.0363   1.0000
   8.800   1.1813   0.01165   0.00602  -0.0457   0.0345   1.0000
   8.900   1.1913   0.01175   0.00612  -0.0456   0.0339   1.0000
   9.000   1.2011   0.01187   0.00623  -0.0454   0.0330   1.0000
   9.100   1.2107   0.01199   0.00635  -0.0451   0.0320   1.0000
   9.200   1.2202   0.01213   0.00648  -0.0449   0.0309   1.0000
   9.300   1.2295   0.01229   0.00663  -0.0446   0.0296   1.0000
   9.400   1.2393   0.01240   0.00675  -0.0444   0.0290   1.0000
   9.500   1.2490   0.01251   0.00686  -0.0442   0.0284   1.0000
   9.600   1.2587   0.01263   0.00698  -0.0440   0.0278   1.0000
   9.700   1.2681   0.01277   0.00711  -0.0437   0.0271   1.0000
   9.800   1.2774   0.01291   0.00725  -0.0435   0.0263   1.0000
   9.900   1.2865   0.01307   0.00740  -0.0432   0.0254   1.0000
  10.000   1.2955   0.01323   0.00756  -0.0429   0.0246   1.0000
  10.100   1.3052   0.01334   0.00768  -0.0427   0.0243   1.0000
  10.200   1.3146   0.01346   0.00780  -0.0424   0.0239   1.0000
  10.300   1.3239   0.01359   0.00794  -0.0422   0.0234   1.0000
  10.400   1.3330   0.01373   0.00808  -0.0419   0.0228   1.0000
  10.500   1.3420   0.01389   0.00823  -0.0416   0.0223   1.0000
  10.600   1.3507   0.01406   0.00839  -0.0412   0.0217   1.0000
  10.700   1.3592   0.01424   0.00858  -0.0408   0.0210   1.0000
  10.800   1.3680   0.01440   0.00874  -0.0405   0.0206   1.0000
  10.900   1.3772   0.01453   0.00888  -0.0402   0.0204   1.0000
  11.000   1.3862   0.01466   0.00902  -0.0399   0.0201   1.0000
  11.100   1.3951   0.01480   0.00917  -0.0396   0.0198   1.0000
  11.200   1.4038   0.01495   0.00933  -0.0393   0.0195   1.0000
  11.300   1.4123   0.01511   0.00949  -0.0389   0.0191   1.0000
  11.400   1.4207   0.01528   0.00966  -0.0385   0.0188   1.0000
  11.500   1.4289   0.01546   0.00984  -0.0381   0.0184   1.0000
  11.600   1.4369   0.01565   0.01003  -0.0376   0.0180   1.0000
  11.700   1.4444   0.01587   0.01025  -0.0371   0.0175   1.0000
  11.800   1.4518   0.01608   0.01048  -0.0366   0.0171   1.0000
  11.900   1.4602   0.01623   0.01064  -0.0362   0.0170   1.0000
  12.000   1.4684   0.01637   0.01079  -0.0358   0.0168   1.0000
  12.100   1.4764   0.01653   0.01096  -0.0354   0.0167   1.0000
  12.200   1.4842   0.01669   0.01114  -0.0349   0.0165   1.0000
  12.300   1.4913   0.01686   0.01131  -0.0343   0.0162   1.0000
  12.400   1.4980   0.01704   0.01150  -0.0336   0.0160   1.0000
  12.500   1.5045   0.01723   0.01169  -0.0329   0.0158   1.0000
  12.600   1.5108   0.01743   0.01190  -0.0322   0.0155   1.0000
  12.700   1.5170   0.01764   0.01212  -0.0315   0.0153   1.0000
  12.800   1.5230   0.01786   0.01234  -0.0307   0.0151   1.0000
  12.900   1.5286   0.01810   0.01260  -0.0299   0.0148   1.0000
  13.000   1.5339   0.01837   0.01288  -0.0291   0.0145   1.0000
  13.100   1.5385   0.01868   0.01321  -0.0282   0.0142   1.0000
  13.200   1.5441   0.01894   0.01348  -0.0275   0.0141   1.0000
  13.300   1.5505   0.01915   0.01371  -0.0269   0.0140   1.0000
  13.400   1.5567   0.01936   0.01394  -0.0263   0.0139   1.0000
  13.500   1.5628   0.01959   0.01418  -0.0256   0.0138   1.0000
  13.600   1.5689   0.01983   0.01444  -0.0250   0.0137   1.0000
  13.700   1.5747   0.02008   0.01471  -0.0244   0.0136   1.0000
  13.800   1.5803   0.02035   0.01498  -0.0237   0.0135   1.0000
  13.900   1.5859   0.02062   0.01527  -0.0231   0.0133   1.0000
  14.000   1.5913   0.02091   0.01558  -0.0224   0.0132   1.0000
  14.100   1.5965   0.02121   0.01589  -0.0218   0.0131   1.0000
  14.200   1.6017   0.02152   0.01621  -0.0212   0.0129   1.0000
  14.300   1.6066   0.02184   0.01655  -0.0205   0.0128   1.0000
  14.400   1.6113   0.02219   0.01691  -0.0199   0.0127   1.0000
  14.500   1.6160   0.02254   0.01728  -0.0192   0.0126   1.0000
  14.600   1.6203   0.02293   0.01768  -0.0185   0.0124   1.0000
  14.700   1.6244   0.02333   0.01810  -0.0179   0.0123   1.0000
  14.800   1.6283   0.02376   0.01855  -0.0172   0.0121   1.0000
  14.900   1.6315   0.02424   0.01905  -0.0165   0.0119   1.0000
  15.000   1.6343   0.02476   0.01959  -0.0158   0.0118   1.0000
