  
       XFOIL         Version 6.99
  
 Calculated polar for: NACA 2412                                       
  
 1 1 Reynolds number fixed          Mach number fixed         
  
 xtrf =   1.000 (top)        1.000 (bottom)  
 Mach =   0.000     Re =     2.530 e 6     Ncrit =   9.000
  
   alpha    CL        CD       CDp       CM     Top_Xtr  Bot_Xtr
  ------ -------- --------- --------- -------- -------- --------
 -15.000  -1.3629   0.02015   0.01607  -0.0590   1.0000   0.0106
 -14.900  -1.3554   0.01990   0.01581  -0.0586   1.0000   0.0106
 -14.800  -1.3479   0.01967   0.01556  -0.0582   1.0000   0.0106
 -14.700  -1.3403   0.01945   0.01532  -0.0578   1.0000   0.0107
 -14.600  -1.3327   0.01923   0.01508  -0.0574   1.0000   0.0107
 -14.500  -1.3251   0.01901   0.01485  -0.0569   1.0000   0.0108
 -14.400  -1.3175   0.01881   0.01464  -0.0565   1.0000   0.0108
 -14.300  -1.3100   0.01861   0.01442  -0.0560   1.0000   0.0108
 -14.200  -1.3025   0.01842   0.01421  -0.0555   1.0000   0.0108
 -14.100  -1.2952   0.01824   0.01401  -0.0549   1.0000   0.0109
 -14.000  -1.2885   0.01799   0.01374  -0.0543   1.0000   0.0109
 -13.900  -1.2834   0.01762   0.01333  -0.0534   1.0000   0.0111
 -13.800  -1.2777   0.01732   0.01300  -0.0526   1.0000   0.0112
 -13.700  -1.2717   0.01704   0.01270  -0.0519   1.0000   0.0114
 -13.600  -1.2655   0.01680   0.01244  -0.0511   1.0000   0.0115
 -13.500  -1.2591   0.01657   0.01220  -0.0503   1.0000   0.0116
 -13.400  -1.2526   0.01637   0.01198  -0.0496   1.0000   0.0117
 -13.300  -1.2460   0.01618   0.01178  -0.0488   1.0000   0.0118
 -13.200  -1.2394   0.01600   0.01159  -0.0481   1.0000   0.0119
 -13.100  -1.2327   0.01583   0.01141  -0.0474   1.0000   0.0120
 -13.000  -1.2260   0.01566   0.01123  -0.0466   1.0000   0.0121
 -12.900  -1.2185   0.01549   0.01105  -0.0460   1.0000   0.0122
 -12.800  -1.2069   0.01530   0.01085  -0.0463   0.9997   0.0124
 -12.700  -1.1952   0.01512   0.01066  -0.0466   0.9995   0.0125
 -12.600  -1.1835   0.01495   0.01047  -0.0469   0.9992   0.0126
 -12.500  -1.1717   0.01477   0.01029  -0.0471   0.9989   0.0127
 -12.400  -1.1599   0.01460   0.01011  -0.0474   0.9986   0.0128
 -12.300  -1.1480   0.01444   0.00993  -0.0477   0.9983   0.0129
 -12.200  -1.1360   0.01428   0.00976  -0.0480   0.9980   0.0130
 -12.100  -1.1240   0.01412   0.00959  -0.0484   0.9977   0.0131
 -12.000  -1.1119   0.01397   0.00943  -0.0487   0.9973   0.0132
 -11.900  -1.0998   0.01382   0.00927  -0.0490   0.9970   0.0133
 -11.800  -1.0876   0.01368   0.00912  -0.0494   0.9967   0.0134
 -11.700  -1.0753   0.01355   0.00897  -0.0497   0.9963   0.0134
 -11.600  -1.0629   0.01342   0.00883  -0.0501   0.9960   0.0135
 -11.500  -1.0512   0.01314   0.00853  -0.0504   0.9957   0.0138
 -11.400  -1.0393   0.01291   0.00829  -0.0507   0.9954   0.0141
 -11.300  -1.0271   0.01272   0.00809  -0.0511   0.9951   0.0144
 -11.200  -1.0147   0.01255   0.00792  -0.0515   0.9948   0.0146
 -11.100  -1.0022   0.01240   0.00777  -0.0519   0.9946   0.0148
 -11.000  -0.9896   0.01226   0.00762  -0.0523   0.9943   0.0150
 -10.900  -0.9769   0.01212   0.00748  -0.0527   0.9941   0.0153
 -10.800  -0.9642   0.01198   0.00734  -0.0531   0.9939   0.0154
 -10.700  -0.9521   0.01186   0.00720  -0.0534   0.9934   0.0156
 -10.600  -0.9405   0.01173   0.00707  -0.0535   0.9927   0.0158
 -10.500  -0.9286   0.01161   0.00694  -0.0538   0.9921   0.0159
 -10.400  -0.9165   0.01149   0.00682  -0.0541   0.9915   0.0161
 -10.300  -0.9042   0.01138   0.00670  -0.0544   0.9909   0.0162
 -10.200  -0.8918   0.01128   0.00659  -0.0547   0.9903   0.0163
 -10.100  -0.8795   0.01117   0.00648  -0.0550   0.9896   0.0164
 -10.000  -0.8676   0.01098   0.00627  -0.0552   0.9888   0.0168
  -9.900  -0.8557   0.01081   0.00609  -0.0555   0.9879   0.0172
  -9.800  -0.8437   0.01067   0.00595  -0.0557   0.9871   0.0176
  -9.700  -0.8318   0.01054   0.00582  -0.0559   0.9862   0.0179
  -9.600  -0.8197   0.01042   0.00570  -0.0562   0.9853   0.0182
  -9.500  -0.8074   0.01030   0.00559  -0.0565   0.9845   0.0184
  -9.400  -0.7952   0.01020   0.00548  -0.0568   0.9835   0.0187
  -9.300  -0.7842   0.01010   0.00538  -0.0567   0.9821   0.0190
  -9.200  -0.7741   0.01001   0.00528  -0.0565   0.9801   0.0192
  -9.100  -0.7636   0.00993   0.00519  -0.0564   0.9780   0.0194
  -9.000  -0.7529   0.00984   0.00510  -0.0563   0.9761   0.0196
  -8.900  -0.7419   0.00977   0.00502  -0.0562   0.9742   0.0197
  -8.800  -0.7312   0.00963   0.00487  -0.0562   0.9723   0.0202
  -8.700  -0.7206   0.00951   0.00474  -0.0561   0.9703   0.0208
  -8.600  -0.7104   0.00940   0.00464  -0.0558   0.9679   0.0213
  -8.500  -0.7002   0.00931   0.00454  -0.0557   0.9652   0.0217
  -8.400  -0.6898   0.00922   0.00445  -0.0555   0.9624   0.0221
  -8.300  -0.6794   0.00913   0.00436  -0.0553   0.9596   0.0225
  -8.200  -0.6689   0.00906   0.00427  -0.0551   0.9570   0.0228
  -8.100  -0.6581   0.00899   0.00419  -0.0550   0.9545   0.0231
  -8.000  -0.6474   0.00892   0.00412  -0.0549   0.9516   0.0233
  -7.900  -0.6367   0.00885   0.00404  -0.0548   0.9487   0.0235
  -7.800  -0.6262   0.00873   0.00391  -0.0547   0.9459   0.0244
  -7.700  -0.6157   0.00864   0.00381  -0.0545   0.9431   0.0250
  -7.600  -0.6050   0.00856   0.00373  -0.0544   0.9406   0.0256
  -7.500  -0.5940   0.00848   0.00365  -0.0544   0.9382   0.0262
  -7.400  -0.5831   0.00840   0.00357  -0.0543   0.9355   0.0267
  -7.300  -0.5722   0.00834   0.00350  -0.0542   0.9326   0.0272
  -7.200  -0.5613   0.00828   0.00343  -0.0541   0.9295   0.0275
  -7.100  -0.5505   0.00823   0.00336  -0.0540   0.9264   0.0280
  -7.000  -0.5396   0.00813   0.00326  -0.0540   0.9237   0.0291
  -6.900  -0.5287   0.00804   0.00318  -0.0539   0.9208   0.0300
  -6.800  -0.5177   0.00797   0.00311  -0.0539   0.9175   0.0309
  -6.700  -0.5068   0.00791   0.00304  -0.0538   0.9143   0.0316
  -6.600  -0.4958   0.00786   0.00297  -0.0537   0.9110   0.0321
  -6.500  -0.4847   0.00781   0.00292  -0.0537   0.9081   0.0325
  -6.400  -0.4736   0.00773   0.00283  -0.0536   0.9048   0.0337
  -6.300  -0.4626   0.00765   0.00276  -0.0536   0.9012   0.0350
  -6.200  -0.4517   0.00759   0.00269  -0.0535   0.8974   0.0361
  -6.100  -0.4408   0.00754   0.00263  -0.0534   0.8935   0.0370
  -6.000  -0.4295   0.00749   0.00257  -0.0534   0.8904   0.0378
  -5.900  -0.4183   0.00744   0.00251  -0.0534   0.8864   0.0387
  -5.800  -0.4073   0.00736   0.00244  -0.0534   0.8823   0.0407
  -5.700  -0.3964   0.00731   0.00238  -0.0533   0.8782   0.0422
  -5.600  -0.3852   0.00725   0.00232  -0.0533   0.8747   0.0434
  -5.500  -0.3739   0.00721   0.00227  -0.0533   0.8706   0.0443
  -5.400  -0.3628   0.00716   0.00221  -0.0532   0.8659   0.0459
  -5.300  -0.3519   0.00710   0.00215  -0.0531   0.8614   0.0480
  -5.200  -0.3407   0.00705   0.00210  -0.0531   0.8575   0.0498
  -5.100  -0.3294   0.00700   0.00205  -0.0531   0.8528   0.0513
  -5.000  -0.3183   0.00697   0.00200  -0.0531   0.8478   0.0526
  -4.900  -0.3073   0.00691   0.00194  -0.0530   0.8433   0.0557
  -4.800  -0.2961   0.00685   0.00189  -0.0530   0.8388   0.0582
  -4.700  -0.2849   0.00682   0.00185  -0.0530   0.8337   0.0600
  -4.600  -0.2738   0.00679   0.00180  -0.0529   0.8285   0.0620
  -4.500  -0.2626   0.00673   0.00175  -0.0529   0.8240   0.0654
  -4.400  -0.2514   0.00668   0.00171  -0.0529   0.8187   0.0681
  -4.300  -0.2402   0.00666   0.00167  -0.0529   0.8133   0.0701
  -4.200  -0.2290   0.00661   0.00162  -0.0529   0.8084   0.0739
  -4.100  -0.2178   0.00655   0.00158  -0.0529   0.8028   0.0777
  -4.000  -0.2067   0.00653   0.00154  -0.0528   0.7969   0.0806
  -3.900  -0.1954   0.00649   0.00150  -0.0528   0.7917   0.0840
  -3.800  -0.1843   0.00644   0.00146  -0.0528   0.7860   0.0886
  -3.700  -0.1731   0.00642   0.00142  -0.0528   0.7801   0.0922
  -3.600  -0.1618   0.00638   0.00139  -0.0528   0.7747   0.0962
  -3.500  -0.1507   0.00633   0.00135  -0.0527   0.7684   0.1018
  -3.400  -0.1396   0.00631   0.00132  -0.0527   0.7622   0.1059
  -3.300  -0.1282   0.00628   0.00129  -0.0527   0.7569   0.1109
  -3.200  -0.1171   0.00624   0.00126  -0.0527   0.7504   0.1165
  -3.100  -0.1059   0.00622   0.00123  -0.0527   0.7445   0.1205
  -3.000  -0.0946   0.00617   0.00120  -0.0527   0.7384   0.1276
  -2.900  -0.0835   0.00615   0.00117  -0.0527   0.7316   0.1335
  -2.800  -0.0722   0.00612   0.00114  -0.0527   0.7258   0.1395
  -2.700  -0.0610   0.00608   0.00112  -0.0527   0.7196   0.1463
  -2.600  -0.0498   0.00607   0.00109  -0.0526   0.7126   0.1517
  -2.500  -0.0386   0.00602   0.00107  -0.0526   0.7067   0.1607
  -2.400  -0.0274   0.00601   0.00105  -0.0526   0.6997   0.1661
  -2.300  -0.0162   0.00598   0.00103  -0.0526   0.6935   0.1748
  -2.200  -0.0049   0.00596   0.00101  -0.0526   0.6870   0.1813
  -2.000   0.0176   0.00591   0.00097  -0.0526   0.6739   0.1977
  -1.900   0.0287   0.00588   0.00095  -0.0526   0.6667   0.2075
  -1.800   0.0400   0.00586   0.00094  -0.0526   0.6607   0.2158
  -1.700   0.0512   0.00583   0.00092  -0.0526   0.6539   0.2251
  -1.600   0.0623   0.00583   0.00091  -0.0526   0.6470   0.2339
  -1.500   0.0737   0.00579   0.00090  -0.0526   0.6412   0.2433
  -1.400   0.0849   0.00578   0.00089  -0.0526   0.6341   0.2523
  -1.300   0.0961   0.00576   0.00088  -0.0526   0.6281   0.2622
  -1.200   0.1073   0.00573   0.00087  -0.0526   0.6212   0.2731
  -1.100   0.1185   0.00573   0.00086  -0.0526   0.6141   0.2838
  -1.000   0.1298   0.00570   0.00086  -0.0526   0.6082   0.2945
  -0.900   0.1410   0.00568   0.00085  -0.0526   0.6016   0.3056
  -0.800   0.1522   0.00567   0.00085  -0.0526   0.5953   0.3157
  -0.700   0.1635   0.00565   0.00084  -0.0527   0.5889   0.3282
  -0.600   0.1746   0.00564   0.00084  -0.0526   0.5819   0.3406
  -0.500   0.1859   0.00561   0.00084  -0.0527   0.5767   0.3530
  -0.400   0.1971   0.00559   0.00083  -0.0527   0.5701   0.3663
  -0.300   0.2082   0.00558   0.00083  -0.0527   0.5637   0.3808
  -0.200   0.2195   0.00554   0.00083  -0.0527   0.5582   0.3964
  -0.100   0.2306   0.00552   0.00083  -0.0527   0.5516   0.4136
  -0.000   0.2416   0.00548   0.00083  -0.0527   0.5459   0.4343
   0.100   0.2528   0.00544   0.00084  -0.0527   0.5404   0.4542
   0.200   0.2638   0.00541   0.00084  -0.0526   0.5337   0.4757
   0.300   0.2749   0.00537   0.00085  -0.0526   0.5285   0.4966
   0.400   0.2861   0.00533   0.00085  -0.0526   0.5231   0.5175
   0.500   0.2971   0.00532   0.00086  -0.0526   0.5168   0.5344
   0.600   0.3083   0.00529   0.00087  -0.0526   0.5122   0.5528
   0.700   0.3195   0.00526   0.00088  -0.0526   0.5069   0.5722
   0.800   0.3305   0.00526   0.00089  -0.0526   0.5006   0.5885
   0.900   0.3417   0.00523   0.00090  -0.0526   0.4957   0.6063
   1.000   0.3529   0.00521   0.00092  -0.0526   0.4909   0.6229
   1.100   0.3640   0.00521   0.00093  -0.0525   0.4851   0.6398
   1.200   0.3751   0.00519   0.00095  -0.0525   0.4804   0.6560
   1.300   0.3863   0.00517   0.00096  -0.0525   0.4754   0.6733
   1.400   0.3973   0.00516   0.00098  -0.0525   0.4700   0.6900
   1.500   0.4084   0.00515   0.00100  -0.0524   0.4650   0.7069
   1.600   0.4196   0.00514   0.00101  -0.0524   0.4605   0.7224
   1.700   0.4305   0.00513   0.00103  -0.0524   0.4552   0.7406
   1.800   0.4415   0.00512   0.00106  -0.0523   0.4498   0.7572
   1.900   0.4526   0.00511   0.00107  -0.0523   0.4456   0.7724
   2.000   0.4636   0.00510   0.00110  -0.0522   0.4405   0.7890
   2.100   0.4743   0.00511   0.00112  -0.0521   0.4343   0.8056
   2.200   0.4853   0.00510   0.00114  -0.0520   0.4303   0.8210
   2.300   0.4961   0.00509   0.00117  -0.0519   0.4251   0.8373
   2.400   0.5068   0.00510   0.00120  -0.0518   0.4190   0.8519
   2.500   0.5175   0.00510   0.00123  -0.0516   0.4145   0.8662
   2.600   0.5281   0.00510   0.00126  -0.0515   0.4090   0.8801
   2.700   0.5385   0.00513   0.00129  -0.0512   0.4021   0.8943
   2.900   0.5594   0.00516   0.00135  -0.0508   0.3903   0.9180
   3.000   0.5695   0.00520   0.00139  -0.0506   0.3837   0.9286
   3.100   0.5799   0.00523   0.00142  -0.0503   0.3770   0.9388
   3.200   0.5898   0.00529   0.00146  -0.0500   0.3689   0.9477
   3.300   0.6004   0.00533   0.00149  -0.0498   0.3630   0.9554
   3.400   0.6107   0.00539   0.00153  -0.0496   0.3546   0.9626
   3.500   0.6214   0.00544   0.00156  -0.0495   0.3477   0.9692
   3.600   0.6329   0.00552   0.00161  -0.0495   0.3388   0.9738
   3.700   0.6446   0.00558   0.00164  -0.0496   0.3310   0.9784
   3.800   0.6556   0.00567   0.00169  -0.0496   0.3218   0.9827
   3.900   0.6689   0.00574   0.00173  -0.0501   0.3136   0.9850
   4.000   0.6818   0.00583   0.00178  -0.0505   0.3041   0.9874
   4.100   0.6944   0.00592   0.00182  -0.0508   0.2951   0.9900
   4.200   0.7065   0.00601   0.00187  -0.0510   0.2859   0.9924
   4.400   0.7332   0.00621   0.00198  -0.0521   0.2660   0.9948
   4.500   0.7471   0.00632   0.00205  -0.0528   0.2555   0.9956
   4.600   0.7610   0.00645   0.00212  -0.0534   0.2436   0.9965
   4.700   0.7750   0.00655   0.00218  -0.0541   0.2334   0.9974
   4.800   0.7890   0.00667   0.00224  -0.0548   0.2233   0.9984
   4.900   0.8030   0.00680   0.00232  -0.0555   0.2118   0.9992
   5.000   0.8169   0.00694   0.00240  -0.0562   0.2005   0.9999
   5.100   0.8270   0.00703   0.00246  -0.0560   0.1921   1.0000
   5.200   0.8358   0.00715   0.00253  -0.0556   0.1826   1.0000
   5.300   0.8449   0.00726   0.00259  -0.0552   0.1743   1.0000
   5.400   0.8540   0.00737   0.00266  -0.0547   0.1660   1.0000
   5.500   0.8628   0.00750   0.00274  -0.0543   0.1560   1.0000
   5.600   0.8723   0.00759   0.00281  -0.0540   0.1494   1.0000
   5.700   0.8813   0.00772   0.00289  -0.0535   0.1410   1.0000
   5.800   0.8908   0.00781   0.00295  -0.0532   0.1352   1.0000
   5.900   0.8998   0.00795   0.00304  -0.0528   0.1264   1.0000
   6.000   0.9094   0.00805   0.00311  -0.0525   0.1207   1.0000
   6.100   0.9185   0.00819   0.00320  -0.0521   0.1127   1.0000
   6.200   0.9283   0.00828   0.00328  -0.0519   0.1076   1.0000
   6.300   0.9376   0.00842   0.00337  -0.0515   0.1008   1.0000
   6.400   0.9475   0.00851   0.00344  -0.0513   0.0965   1.0000
   6.500   0.9571   0.00863   0.00353  -0.0510   0.0910   1.0000
   6.600   0.9669   0.00875   0.00361  -0.0508   0.0859   1.0000
   6.700   0.9768   0.00885   0.00370  -0.0506   0.0816   1.0000
   6.800   0.9864   0.00899   0.00380  -0.0503   0.0759   1.0000
   6.900   0.9966   0.00908   0.00388  -0.0501   0.0732   1.0000
   7.000   1.0065   0.00920   0.00397  -0.0499   0.0696   1.0000
   7.100   1.0163   0.00932   0.00406  -0.0497   0.0653   1.0000
   7.200   1.0265   0.00941   0.00414  -0.0495   0.0632   1.0000
   7.300   1.0365   0.00952   0.00423  -0.0493   0.0603   1.0000
   7.400   1.0463   0.00966   0.00434  -0.0491   0.0564   1.0000
   7.500   1.0565   0.00975   0.00442  -0.0489   0.0546   1.0000
   7.600   1.0665   0.00986   0.00451  -0.0488   0.0522   1.0000
   7.700   1.0763   0.00999   0.00463  -0.0485   0.0494   1.0000
   7.800   1.0864   0.01009   0.00472  -0.0484   0.0474   1.0000
   7.900   1.0966   0.01019   0.00481  -0.0482   0.0460   1.0000
   8.000   1.1065   0.01030   0.00490  -0.0480   0.0442   1.0000
   8.100   1.1163   0.01043   0.00502  -0.0478   0.0421   1.0000
   8.200   1.1263   0.01054   0.00511  -0.0476   0.0404   1.0000
   8.300   1.1365   0.01063   0.00521  -0.0475   0.0393   1.0000
   8.400   1.1464   0.01074   0.00531  -0.0473   0.0380   1.0000
   8.500   1.1562   0.01087   0.00542  -0.0471   0.0364   1.0000
   8.600   1.1659   0.01100   0.00554  -0.0469   0.0345   1.0000
   8.700   1.1760   0.01110   0.00564  -0.0467   0.0339   1.0000
   8.800   1.1860   0.01120   0.00574  -0.0466   0.0330   1.0000
   8.900   1.1958   0.01132   0.00585  -0.0464   0.0319   1.0000
   9.000   1.2055   0.01146   0.00597  -0.0461   0.0307   1.0000
   9.100   1.2151   0.01159   0.00610  -0.0459   0.0293   1.0000
   9.200   1.2251   0.01169   0.00620  -0.0457   0.0289   1.0000
   9.300   1.2350   0.01180   0.00631  -0.0456   0.0283   1.0000
   9.400   1.2447   0.01191   0.00642  -0.0454   0.0276   1.0000
   9.500   1.2543   0.01204   0.00654  -0.0451   0.0269   1.0000
   9.600   1.2638   0.01218   0.00667  -0.0449   0.0260   1.0000
   9.700   1.2731   0.01233   0.00681  -0.0446   0.0249   1.0000
   9.800   1.2828   0.01244   0.00693  -0.0444   0.0245   1.0000
   9.900   1.2926   0.01255   0.00704  -0.0442   0.0241   1.0000
  10.000   1.3022   0.01267   0.00716  -0.0440   0.0236   1.0000
  10.100   1.3116   0.01280   0.00729  -0.0437   0.0230   1.0000
  10.200   1.3209   0.01293   0.00742  -0.0435   0.0225   1.0000
  10.300   1.3300   0.01308   0.00756  -0.0432   0.0218   1.0000
  10.400   1.3390   0.01324   0.00772  -0.0429   0.0211   1.0000
  10.500   1.3482   0.01339   0.00787  -0.0426   0.0206   1.0000
  10.600   1.3576   0.01351   0.00799  -0.0424   0.0204   1.0000
  10.700   1.3670   0.01363   0.00812  -0.0421   0.0201   1.0000
  10.800   1.3762   0.01376   0.00825  -0.0418   0.0198   1.0000
  10.900   1.3853   0.01389   0.00839  -0.0416   0.0195   1.0000
  11.000   1.3943   0.01404   0.00854  -0.0412   0.0191   1.0000
  11.100   1.4031   0.01419   0.00869  -0.0409   0.0187   1.0000
  11.200   1.4117   0.01436   0.00885  -0.0406   0.0183   1.0000
  11.300   1.4201   0.01454   0.00903  -0.0402   0.0178   1.0000
  11.400   1.4283   0.01473   0.00924  -0.0397   0.0173   1.0000
  11.500   1.4370   0.01487   0.00939  -0.0394   0.0171   1.0000
  11.600   1.4459   0.01501   0.00953  -0.0391   0.0169   1.0000
  11.700   1.4547   0.01514   0.00967  -0.0388   0.0167   1.0000
  11.800   1.4632   0.01529   0.00982  -0.0384   0.0165   1.0000
  11.900   1.4716   0.01544   0.00998  -0.0380   0.0163   1.0000
  12.000   1.4799   0.01560   0.01015  -0.0376   0.0160   1.0000
  12.100   1.4880   0.01577   0.01032  -0.0372   0.0158   1.0000
  12.200   1.4958   0.01595   0.01050  -0.0367   0.0155   1.0000
  12.300   1.5034   0.01613   0.01069  -0.0362   0.0152   1.0000
  12.400   1.5107   0.01633   0.01089  -0.0357   0.0149   1.0000
  12.500   1.5173   0.01654   0.01111  -0.0350   0.0146   1.0000
  12.600   1.5231   0.01678   0.01135  -0.0342   0.0142   1.0000
  12.700   1.5295   0.01696   0.01155  -0.0335   0.0141   1.0000
  12.800   1.5363   0.01713   0.01173  -0.0328   0.0140   1.0000
  12.900   1.5431   0.01730   0.01191  -0.0322   0.0139   1.0000
  13.000   1.5498   0.01747   0.01210  -0.0315   0.0138   1.0000
  13.100   1.5564   0.01766   0.01230  -0.0309   0.0137   1.0000
  13.200   1.5628   0.01785   0.01250  -0.0302   0.0136   1.0000
  13.300   1.5691   0.01806   0.01272  -0.0296   0.0134   1.0000
  13.400   1.5753   0.01827   0.01294  -0.0289   0.0133   1.0000
  13.500   1.5813   0.01849   0.01318  -0.0282   0.0131   1.0000
  13.600   1.5873   0.01872   0.01342  -0.0275   0.0130   1.0000
  13.700   1.5930   0.01897   0.01367  -0.0268   0.0128   1.0000
  13.800   1.5985   0.01923   0.01394  -0.0261   0.0127   1.0000
  13.900   1.6041   0.01949   0.01421  -0.0254   0.0125   1.0000
  14.000   1.6093   0.01977   0.01450  -0.0247   0.0124   1.0000
  14.100   1.6142   0.02008   0.01482  -0.0240   0.0122   1.0000
  14.200   1.6189   0.02040   0.01516  -0.0232   0.0120   1.0000
  14.300   1.6231   0.02076   0.01554  -0.0225   0.0118   1.0000
  14.400   1.6269   0.02116   0.01595  -0.0216   0.0116   1.0000
  14.500   1.6309   0.02154   0.01636  -0.0209   0.0114   1.0000
  14.600   1.6363   0.02183   0.01667  -0.0203   0.0114   1.0000
  14.700   1.6416   0.02214   0.01699  -0.0197   0.0113   1.0000
  14.800   1.6469   0.02245   0.01732  -0.0191   0.0113   1.0000
  14.900   1.6519   0.02279   0.01767  -0.0186   0.0112   1.0000
  15.000   1.6569   0.02313   0.01803  -0.0180   0.0112   1.0000
