  
       XFOIL         Version 6.99
  
 Calculated polar for: NACA 2412                                       
  
 1 1 Reynolds number fixed          Mach number fixed         
  
 xtrf =   1.000 (top)        1.000 (bottom)  
 Mach =   0.000     Re =     2.950 e 6     Ncrit =   9.000
  
   alpha    CL        CD       CDp       CM     Top_Xtr  Bot_Xtr
  ------ -------- --------- --------- -------- -------- --------
 -14.800  -1.3612   0.01842   0.01430  -0.0568   1.0000   0.0103
 -14.700  -1.3535   0.01821   0.01407  -0.0563   1.0000   0.0104
 -14.600  -1.3459   0.01800   0.01385  -0.0559   1.0000   0.0104
 -14.500  -1.3384   0.01781   0.01364  -0.0554   1.0000   0.0105
 -14.400  -1.3309   0.01762   0.01344  -0.0548   1.0000   0.0105
 -14.300  -1.3235   0.01743   0.01323  -0.0543   1.0000   0.0106
 -14.200  -1.3161   0.01725   0.01304  -0.0538   1.0000   0.0106
 -14.100  -1.3087   0.01707   0.01284  -0.0532   1.0000   0.0107
 -14.000  -1.3014   0.01690   0.01266  -0.0526   1.0000   0.0107
 -13.900  -1.2941   0.01674   0.01249  -0.0520   1.0000   0.0108
 -13.800  -1.2869   0.01658   0.01231  -0.0514   1.0000   0.0108
 -13.700  -1.2798   0.01642   0.01214  -0.0507   1.0000   0.0108
 -13.600  -1.2727   0.01627   0.01198  -0.0500   1.0000   0.0108
 -13.500  -1.2656   0.01612   0.01182  -0.0493   1.0000   0.0109
 -13.400  -1.2590   0.01595   0.01164  -0.0486   1.0000   0.0109
 -13.300  -1.2537   0.01568   0.01133  -0.0476   1.0000   0.0111
 -13.200  -1.2472   0.01542   0.01106  -0.0469   1.0000   0.0112
 -13.100  -1.2362   0.01516   0.01077  -0.0471   0.9998   0.0114
 -13.000  -1.2249   0.01492   0.01052  -0.0473   0.9995   0.0116
 -12.900  -1.2135   0.01471   0.01030  -0.0476   0.9993   0.0118
 -12.800  -1.2020   0.01451   0.01009  -0.0478   0.9990   0.0119
 -12.700  -1.1904   0.01433   0.00990  -0.0481   0.9987   0.0121
 -12.600  -1.1787   0.01415   0.00972  -0.0484   0.9984   0.0122
 -12.500  -1.1669   0.01398   0.00954  -0.0486   0.9981   0.0123
 -12.400  -1.1551   0.01382   0.00937  -0.0489   0.9978   0.0124
 -12.300  -1.1432   0.01366   0.00921  -0.0492   0.9974   0.0126
 -12.200  -1.1312   0.01351   0.00904  -0.0495   0.9971   0.0127
 -12.100  -1.1192   0.01336   0.00889  -0.0498   0.9968   0.0128
 -12.000  -1.1071   0.01321   0.00873  -0.0502   0.9965   0.0129
 -11.900  -1.0949   0.01307   0.00858  -0.0505   0.9962   0.0130
 -11.800  -1.0827   0.01293   0.00843  -0.0508   0.9959   0.0131
 -11.700  -1.0704   0.01279   0.00828  -0.0512   0.9956   0.0132
 -11.600  -1.0580   0.01266   0.00814  -0.0515   0.9953   0.0133
 -11.500  -1.0456   0.01253   0.00801  -0.0519   0.9951   0.0134
 -11.400  -1.0331   0.01241   0.00788  -0.0523   0.9948   0.0134
 -11.300  -1.0206   0.01229   0.00776  -0.0527   0.9946   0.0135
 -11.200  -1.0085   0.01206   0.00751  -0.0530   0.9944   0.0138
 -11.100  -0.9962   0.01187   0.00730  -0.0534   0.9942   0.0142
 -11.000  -0.9837   0.01170   0.00714  -0.0538   0.9940   0.0145
 -10.900  -0.9715   0.01155   0.00698  -0.0541   0.9936   0.0147
 -10.800  -0.9601   0.01142   0.00685  -0.0542   0.9929   0.0149
 -10.700  -0.9484   0.01129   0.00672  -0.0544   0.9923   0.0151
 -10.600  -0.9366   0.01117   0.00659  -0.0546   0.9915   0.0153
 -10.500  -0.9248   0.01105   0.00647  -0.0548   0.9907   0.0155
 -10.400  -0.9129   0.01093   0.00635  -0.0551   0.9899   0.0157
 -10.300  -0.9009   0.01082   0.00624  -0.0553   0.9891   0.0159
 -10.200  -0.8890   0.01072   0.00613  -0.0555   0.9882   0.0160
 -10.100  -0.8772   0.01061   0.00602  -0.0557   0.9872   0.0162
 -10.000  -0.8653   0.01052   0.00591  -0.0559   0.9863   0.0163
  -9.900  -0.8532   0.01042   0.00581  -0.0561   0.9854   0.0164
  -9.800  -0.8413   0.01030   0.00569  -0.0563   0.9844   0.0165
  -9.700  -0.8296   0.01015   0.00552  -0.0565   0.9833   0.0170
  -9.600  -0.8195   0.01002   0.00539  -0.0563   0.9816   0.0174
  -9.500  -0.8094   0.00990   0.00527  -0.0561   0.9796   0.0177
  -9.400  -0.7992   0.00980   0.00517  -0.0559   0.9775   0.0180
  -9.300  -0.7886   0.00970   0.00507  -0.0558   0.9756   0.0183
  -9.200  -0.7779   0.00960   0.00497  -0.0557   0.9737   0.0186
  -9.100  -0.7671   0.00952   0.00487  -0.0556   0.9717   0.0189
  -9.000  -0.7565   0.00943   0.00478  -0.0555   0.9697   0.0191
  -8.900  -0.7461   0.00935   0.00470  -0.0554   0.9674   0.0193
  -8.800  -0.7356   0.00928   0.00462  -0.0552   0.9648   0.0195
  -8.700  -0.7251   0.00921   0.00454  -0.0550   0.9620   0.0197
  -8.600  -0.7148   0.00912   0.00444  -0.0549   0.9592   0.0200
  -8.500  -0.7046   0.00901   0.00431  -0.0547   0.9563   0.0206
  -8.400  -0.6939   0.00890   0.00421  -0.0545   0.9538   0.0212
  -8.300  -0.6833   0.00881   0.00412  -0.0544   0.9509   0.0216
  -8.200  -0.6727   0.00873   0.00403  -0.0543   0.9478   0.0220
  -8.100  -0.6621   0.00865   0.00395  -0.0542   0.9449   0.0224
  -8.000  -0.6515   0.00859   0.00387  -0.0540   0.9419   0.0228
  -7.900  -0.6405   0.00852   0.00380  -0.0540   0.9396   0.0231
  -7.800  -0.6294   0.00846   0.00373  -0.0540   0.9371   0.0233
  -7.700  -0.6184   0.00840   0.00366  -0.0539   0.9344   0.0235
  -7.600  -0.6078   0.00829   0.00355  -0.0538   0.9313   0.0243
  -7.500  -0.5971   0.00821   0.00346  -0.0537   0.9283   0.0251
  -7.400  -0.5863   0.00814   0.00338  -0.0536   0.9253   0.0257
  -7.300  -0.5752   0.00806   0.00331  -0.0536   0.9227   0.0263
  -7.200  -0.5642   0.00799   0.00324  -0.0535   0.9196   0.0268
  -7.100  -0.5531   0.00794   0.00317  -0.0535   0.9163   0.0273
  -7.000  -0.5421   0.00789   0.00311  -0.0534   0.9130   0.0276
  -6.900  -0.5313   0.00783   0.00304  -0.0533   0.9097   0.0283
  -6.800  -0.5202   0.00774   0.00295  -0.0533   0.9070   0.0295
  -6.700  -0.5091   0.00767   0.00288  -0.0533   0.9038   0.0304
  -6.600  -0.4981   0.00761   0.00282  -0.0532   0.9001   0.0312
  -6.500  -0.4871   0.00756   0.00275  -0.0532   0.8964   0.0319
  -6.400  -0.4760   0.00751   0.00270  -0.0531   0.8927   0.0323
  -6.300  -0.4647   0.00746   0.00264  -0.0531   0.8894   0.0330
  -6.200  -0.4537   0.00738   0.00256  -0.0531   0.8855   0.0345
  -6.100  -0.4427   0.00732   0.00250  -0.0530   0.8812   0.0357
  -6.000  -0.4317   0.00727   0.00244  -0.0530   0.8771   0.0367
  -5.900  -0.4204   0.00722   0.00238  -0.0530   0.8737   0.0375
  -5.800  -0.4091   0.00718   0.00233  -0.0530   0.8697   0.0381
  -5.700  -0.3981   0.00712   0.00227  -0.0529   0.8650   0.0401
  -5.600  -0.3871   0.00707   0.00221  -0.0528   0.8606   0.0417
  -5.500  -0.3759   0.00701   0.00216  -0.0528   0.8567   0.0431
  -5.400  -0.3646   0.00697   0.00211  -0.0528   0.8519   0.0441
  -5.300  -0.3535   0.00694   0.00206  -0.0528   0.8469   0.0450
  -5.200  -0.3424   0.00688   0.00200  -0.0528   0.8427   0.0474
  -5.100  -0.3311   0.00682   0.00195  -0.0528   0.8381   0.0493
  -5.000  -0.3199   0.00679   0.00190  -0.0527   0.8329   0.0509
  -4.900  -0.3088   0.00676   0.00186  -0.0527   0.8277   0.0520
  -4.800  -0.2975   0.00670   0.00181  -0.0527   0.8233   0.0550
  -4.700  -0.2864   0.00665   0.00176  -0.0527   0.8178   0.0575
  -4.600  -0.2753   0.00662   0.00172  -0.0526   0.8124   0.0595
  -4.400  -0.2527   0.00654   0.00163  -0.0526   0.8024   0.0646
  -4.300  -0.2416   0.00650   0.00159  -0.0526   0.7965   0.0674
  -4.200  -0.2303   0.00647   0.00155  -0.0526   0.7914   0.0696
  -4.100  -0.2190   0.00644   0.00151  -0.0526   0.7854   0.0723
  -4.000  -0.2080   0.00640   0.00147  -0.0526   0.7793   0.0765
  -3.900  -0.1966   0.00635   0.00143  -0.0526   0.7743   0.0799
  -3.800  -0.1853   0.00633   0.00140  -0.0526   0.7683   0.0822
  -3.700  -0.1743   0.00629   0.00136  -0.0525   0.7620   0.0873
  -3.600  -0.1629   0.00625   0.00133  -0.0525   0.7566   0.0912
  -3.400  -0.1405   0.00619   0.00126  -0.0525   0.7444   0.1002
  -3.300  -0.1292   0.00616   0.00123  -0.0525   0.7385   0.1048
  -3.200  -0.1180   0.00615   0.00121  -0.0525   0.7315   0.1081
  -3.100  -0.1068   0.00610   0.00117  -0.0525   0.7257   0.1143
  -3.000  -0.0955   0.00608   0.00115  -0.0525   0.7191   0.1191
  -2.900  -0.0843   0.00606   0.00112  -0.0525   0.7127   0.1246
  -2.800  -0.0730   0.00601   0.00109  -0.0525   0.7070   0.1317
  -2.700  -0.0617   0.00600   0.00107  -0.0525   0.7001   0.1356
  -2.600  -0.0505   0.00597   0.00105  -0.0525   0.6936   0.1434
  -2.500  -0.0392   0.00594   0.00103  -0.0525   0.6869   0.1495
  -2.400  -0.0280   0.00592   0.00100  -0.0525   0.6804   0.1568
  -2.300  -0.0167   0.00589   0.00098  -0.0525   0.6744   0.1638
  -2.200  -0.0055   0.00588   0.00097  -0.0525   0.6673   0.1704
  -2.100   0.0057   0.00585   0.00095  -0.0525   0.6608   0.1787
  -2.000   0.0171   0.00583   0.00093  -0.0525   0.6542   0.1862
  -1.800   0.0396   0.00579   0.00090  -0.0525   0.6416   0.2021
  -1.700   0.0508   0.00577   0.00089  -0.0525   0.6344   0.2105
  -1.600   0.0621   0.00574   0.00087  -0.0525   0.6285   0.2200
  -1.500   0.0734   0.00573   0.00086  -0.0526   0.6223   0.2280
  -1.400   0.0846   0.00572   0.00085  -0.0526   0.6149   0.2365
  -1.300   0.0959   0.00570   0.00084  -0.0526   0.6092   0.2455
  -1.200   0.1071   0.00567   0.00084  -0.0526   0.6020   0.2562
  -1.100   0.1184   0.00567   0.00083  -0.0526   0.5961   0.2653
  -1.000   0.1297   0.00564   0.00082  -0.0526   0.5898   0.2762
  -0.900   0.1409   0.00563   0.00082  -0.0526   0.5828   0.2863
  -0.800   0.1523   0.00562   0.00081  -0.0526   0.5774   0.2959
  -0.700   0.1635   0.00559   0.00081  -0.0526   0.5710   0.3077
  -0.600   0.1747   0.00559   0.00081  -0.0526   0.5643   0.3179
  -0.500   0.1861   0.00557   0.00080  -0.0527   0.5589   0.3295
  -0.400   0.1973   0.00555   0.00080  -0.0527   0.5524   0.3420
  -0.300   0.2085   0.00553   0.00080  -0.0527   0.5466   0.3551
  -0.200   0.2198   0.00551   0.00080  -0.0527   0.5414   0.3686
  -0.100   0.2310   0.00551   0.00080  -0.0527   0.5346   0.3805
  -0.000   0.2422   0.00548   0.00080  -0.0527   0.5293   0.3966
   0.100   0.2535   0.00544   0.00080  -0.0527   0.5242   0.4131
   0.200   0.2645   0.00541   0.00081  -0.0527   0.5179   0.4350
   0.300   0.2757   0.00537   0.00081  -0.0527   0.5129   0.4543
   0.400   0.2868   0.00533   0.00082  -0.0527   0.5080   0.4771
   0.500   0.2979   0.00531   0.00083  -0.0527   0.5018   0.4948
   0.600   0.3091   0.00528   0.00083  -0.0527   0.4970   0.5142
   0.700   0.3204   0.00526   0.00084  -0.0528   0.4920   0.5321
   0.800   0.3315   0.00524   0.00085  -0.0527   0.4861   0.5493
   0.900   0.3426   0.00522   0.00087  -0.0527   0.4810   0.5680
   1.000   0.3539   0.00520   0.00088  -0.0528   0.4768   0.5847
   1.100   0.3651   0.00519   0.00089  -0.0527   0.4714   0.6008
   1.200   0.3762   0.00518   0.00090  -0.0527   0.4658   0.6166
   1.300   0.3874   0.00516   0.00092  -0.0527   0.4618   0.6341
   1.400   0.3986   0.00514   0.00093  -0.0527   0.4568   0.6504
   1.500   0.4097   0.00514   0.00095  -0.0527   0.4512   0.6670
   1.600   0.4209   0.00512   0.00096  -0.0527   0.4470   0.6825
   1.700   0.4321   0.00511   0.00098  -0.0527   0.4426   0.6996
   1.800   0.4431   0.00511   0.00100  -0.0527   0.4367   0.7166
   1.900   0.4542   0.00510   0.00102  -0.0526   0.4320   0.7319
   2.000   0.4653   0.00508   0.00104  -0.0526   0.4276   0.7491
   2.100   0.4763   0.00508   0.00107  -0.0525   0.4218   0.7647
   2.200   0.4873   0.00508   0.00109  -0.0525   0.4163   0.7803
   2.300   0.4983   0.00507   0.00111  -0.0524   0.4115   0.7965
   2.400   0.5092   0.00508   0.00114  -0.0524   0.4058   0.8113
   2.500   0.5200   0.00508   0.00117  -0.0523   0.4001   0.8271
   2.600   0.5309   0.00508   0.00119  -0.0522   0.3945   0.8425
   2.700   0.5415   0.00511   0.00123  -0.0520   0.3873   0.8573
   2.800   0.5523   0.00511   0.00125  -0.0519   0.3813   0.8714
   2.900   0.5627   0.00513   0.00129  -0.0517   0.3741   0.8850
   3.000   0.5731   0.00516   0.00132  -0.0515   0.3674   0.8978
   3.100   0.5835   0.00519   0.00136  -0.0513   0.3597   0.9102
   3.200   0.5938   0.00523   0.00140  -0.0511   0.3520   0.9217
   3.300   0.6040   0.00526   0.00143  -0.0508   0.3450   0.9318
   3.400   0.6141   0.00532   0.00148  -0.0506   0.3368   0.9411
   3.500   0.6241   0.00537   0.00151  -0.0503   0.3293   0.9506
   3.600   0.6343   0.00543   0.00156  -0.0500   0.3214   0.9577
   3.700   0.6447   0.00549   0.00159  -0.0498   0.3134   0.9651
   3.800   0.6552   0.00557   0.00164  -0.0497   0.3047   0.9708
   3.900   0.6667   0.00564   0.00168  -0.0497   0.2963   0.9757
   4.000   0.6778   0.00572   0.00173  -0.0497   0.2876   0.9803
   4.100   0.6895   0.00581   0.00178  -0.0498   0.2783   0.9837
   4.200   0.7024   0.00589   0.00182  -0.0502   0.2691   0.9862
   4.300   0.7149   0.00600   0.00188  -0.0506   0.2585   0.9888
   4.400   0.7269   0.00609   0.00193  -0.0508   0.2497   0.9915
   4.500   0.7387   0.00619   0.00199  -0.0509   0.2406   0.9938
   4.600   0.7524   0.00632   0.00206  -0.0516   0.2283   0.9947
   4.700   0.7662   0.00642   0.00212  -0.0522   0.2191   0.9955
   4.800   0.7800   0.00653   0.00218  -0.0529   0.2093   0.9964
   4.900   0.7937   0.00667   0.00226  -0.0535   0.1974   0.9973
   5.000   0.8075   0.00678   0.00233  -0.0541   0.1876   0.9982
   5.100   0.8215   0.00690   0.00240  -0.0548   0.1782   0.9991
   5.200   0.8351   0.00704   0.00248  -0.0554   0.1674   0.9997
   5.300   0.8463   0.00716   0.00256  -0.0555   0.1579   1.0000
   5.400   0.8555   0.00726   0.00262  -0.0551   0.1508   1.0000
   5.500   0.8644   0.00738   0.00270  -0.0547   0.1423   1.0000
   5.600   0.8738   0.00746   0.00276  -0.0543   0.1364   1.0000
   5.700   0.8829   0.00759   0.00283  -0.0539   0.1287   1.0000
   5.800   0.8923   0.00768   0.00290  -0.0536   0.1228   1.0000
   5.900   0.9014   0.00781   0.00298  -0.0532   0.1149   1.0000
   6.000   0.9109   0.00790   0.00305  -0.0529   0.1093   1.0000
   6.100   0.9202   0.00802   0.00313  -0.0525   0.1032   1.0000
   6.200   0.9298   0.00812   0.00321  -0.0522   0.0979   1.0000
   6.300   0.9395   0.00822   0.00328  -0.0519   0.0932   1.0000
   6.400   0.9490   0.00835   0.00337  -0.0516   0.0870   1.0000
   6.500   0.9589   0.00844   0.00344  -0.0514   0.0835   1.0000
   6.600   0.9685   0.00857   0.00353  -0.0511   0.0783   1.0000
   6.700   0.9785   0.00866   0.00361  -0.0509   0.0744   1.0000
   6.800   0.9886   0.00876   0.00369  -0.0507   0.0712   1.0000
   6.900   0.9983   0.00889   0.00378  -0.0505   0.0669   1.0000
   7.000   1.0085   0.00897   0.00386  -0.0503   0.0642   1.0000
   7.100   1.0186   0.00907   0.00394  -0.0501   0.0616   1.0000
   7.200   1.0285   0.00919   0.00403  -0.0499   0.0583   1.0000
   7.300   1.0386   0.00929   0.00412  -0.0497   0.0554   1.0000
   7.400   1.0488   0.00939   0.00420  -0.0496   0.0533   1.0000
   7.500   1.0588   0.00950   0.00430  -0.0494   0.0508   1.0000
   7.600   1.0687   0.00962   0.00439  -0.0492   0.0478   1.0000
   7.700   1.0790   0.00971   0.00447  -0.0490   0.0466   1.0000
   7.800   1.0892   0.00981   0.00456  -0.0489   0.0450   1.0000
   7.900   1.0991   0.00992   0.00466  -0.0487   0.0430   1.0000
   8.000   1.1091   0.01004   0.00476  -0.0485   0.0407   1.0000
   8.100   1.1193   0.01013   0.00484  -0.0484   0.0398   1.0000
   8.200   1.1295   0.01023   0.00494  -0.0482   0.0385   1.0000
   8.300   1.1394   0.01035   0.00504  -0.0480   0.0370   1.0000
   8.400   1.1492   0.01047   0.00515  -0.0478   0.0350   1.0000
   8.500   1.1594   0.01057   0.00524  -0.0477   0.0341   1.0000
   8.600   1.1695   0.01066   0.00534  -0.0475   0.0333   1.0000
   8.700   1.1795   0.01077   0.00544  -0.0473   0.0323   1.0000
   8.800   1.1893   0.01089   0.00555  -0.0471   0.0311   1.0000
   8.900   1.1991   0.01102   0.00566  -0.0469   0.0297   1.0000
   9.000   1.2091   0.01112   0.00576  -0.0468   0.0290   1.0000
   9.100   1.2192   0.01122   0.00586  -0.0466   0.0285   1.0000
   9.200   1.2291   0.01133   0.00596  -0.0464   0.0278   1.0000
   9.300   1.2389   0.01144   0.00607  -0.0462   0.0270   1.0000
   9.400   1.2485   0.01157   0.00620  -0.0460   0.0261   1.0000
   9.500   1.2581   0.01171   0.00633  -0.0458   0.0250   1.0000
   9.600   1.2679   0.01182   0.00644  -0.0456   0.0245   1.0000
   9.700   1.2778   0.01192   0.00654  -0.0454   0.0241   1.0000
   9.800   1.2876   0.01203   0.00665  -0.0452   0.0236   1.0000
   9.900   1.2972   0.01215   0.00677  -0.0450   0.0231   1.0000
  10.000   1.3067   0.01229   0.00689  -0.0448   0.0224   1.0000
  10.100   1.3160   0.01243   0.00703  -0.0445   0.0217   1.0000
  10.200   1.3253   0.01258   0.00717  -0.0442   0.0209   1.0000
  10.300   1.3348   0.01270   0.00730  -0.0440   0.0205   1.0000
  10.400   1.3444   0.01281   0.00741  -0.0438   0.0203   1.0000
  10.500   1.3540   0.01292   0.00753  -0.0436   0.0200   1.0000
  10.600   1.3634   0.01304   0.00765  -0.0433   0.0197   1.0000
  10.700   1.3727   0.01318   0.00778  -0.0431   0.0193   1.0000
  10.800   1.3819   0.01331   0.00792  -0.0428   0.0189   1.0000
  10.900   1.3909   0.01346   0.00806  -0.0425   0.0185   1.0000
  11.000   1.3998   0.01362   0.00822  -0.0422   0.0180   1.0000
  11.100   1.4085   0.01379   0.00839  -0.0418   0.0174   1.0000
  11.200   1.4174   0.01394   0.00855  -0.0415   0.0171   1.0000
  11.300   1.4266   0.01406   0.00867  -0.0412   0.0170   1.0000
  11.400   1.4357   0.01418   0.00880  -0.0409   0.0168   1.0000
  11.500   1.4447   0.01432   0.00894  -0.0407   0.0166   1.0000
  11.600   1.4536   0.01446   0.00908  -0.0403   0.0163   1.0000
  11.700   1.4623   0.01460   0.00923  -0.0400   0.0161   1.0000
  11.800   1.4708   0.01476   0.00939  -0.0396   0.0158   1.0000
  11.900   1.4792   0.01492   0.00955  -0.0392   0.0155   1.0000
  12.000   1.4874   0.01509   0.00972  -0.0388   0.0152   1.0000
  12.100   1.4954   0.01527   0.00991  -0.0384   0.0148   1.0000
  12.200   1.5031   0.01547   0.01011  -0.0379   0.0144   1.0000
  12.300   1.5106   0.01567   0.01032  -0.0374   0.0141   1.0000
  12.400   1.5189   0.01582   0.01048  -0.0370   0.0140   1.0000
  12.500   1.5271   0.01596   0.01063  -0.0366   0.0139   1.0000
  12.600   1.5350   0.01612   0.01079  -0.0361   0.0138   1.0000
  12.700   1.5426   0.01627   0.01096  -0.0356   0.0137   1.0000
  12.800   1.5497   0.01643   0.01112  -0.0350   0.0136   1.0000
  12.900   1.5564   0.01660   0.01130  -0.0343   0.0134   1.0000
  13.000   1.5630   0.01677   0.01148  -0.0336   0.0133   1.0000
  13.100   1.5694   0.01696   0.01168  -0.0329   0.0131   1.0000
  13.200   1.5758   0.01715   0.01188  -0.0322   0.0130   1.0000
  13.300   1.5819   0.01735   0.01208  -0.0315   0.0128   1.0000
  13.400   1.5880   0.01756   0.01230  -0.0308   0.0126   1.0000
  13.500   1.5939   0.01779   0.01253  -0.0301   0.0124   1.0000
  13.600   1.5996   0.01802   0.01278  -0.0293   0.0123   1.0000
  13.700   1.6050   0.01827   0.01304  -0.0285   0.0120   1.0000
  13.800   1.6101   0.01856   0.01333  -0.0277   0.0118   1.0000
  13.900   1.6148   0.01885   0.01365  -0.0269   0.0116   1.0000
  14.000   1.6199   0.01914   0.01395  -0.0261   0.0114   1.0000
  14.100   1.6261   0.01936   0.01418  -0.0255   0.0114   1.0000
  14.200   1.6321   0.01960   0.01443  -0.0249   0.0113   1.0000
  14.300   1.6379   0.01984   0.01469  -0.0243   0.0113   1.0000
  14.400   1.6437   0.02009   0.01496  -0.0237   0.0112   1.0000
  14.500   1.6493   0.02036   0.01524  -0.0231   0.0112   1.0000
  14.600   1.6548   0.02063   0.01553  -0.0224   0.0111   1.0000
  14.700   1.6602   0.02092   0.01583  -0.0218   0.0110   1.0000
  14.800   1.6656   0.02121   0.01614  -0.0212   0.0109   1.0000
  14.900   1.6706   0.02153   0.01647  -0.0206   0.0108   1.0000
  15.000   1.6756   0.02185   0.01680  -0.0200   0.0107   1.0000
