  
       XFOIL         Version 6.99
  
 Calculated polar for: NACA 2414                                       
  
 1 1 Reynolds number fixed          Mach number fixed         
  
 xtrf =   1.000 (top)        1.000 (bottom)  
 Mach =   0.000     Re =     0.420 e 6     Ncrit =   9.000
  
   alpha    CL        CD       CDp       CM     Top_Xtr  Bot_Xtr
  ------ -------- --------- --------- -------- -------- --------
 -14.800  -1.0526   0.04553   0.04071  -0.0740   1.0000   0.0297
 -14.700  -1.0554   0.04410   0.03919  -0.0746   1.0000   0.0298
 -14.600  -1.0579   0.04277   0.03778  -0.0751   1.0000   0.0299
 -14.500  -1.0602   0.04155   0.03648  -0.0755   1.0000   0.0300
 -14.400  -1.0621   0.04044   0.03528  -0.0758   1.0000   0.0301
 -14.300  -1.0643   0.03925   0.03403  -0.0758   1.0000   0.0302
 -14.200  -1.0653   0.03811   0.03285  -0.0756   1.0000   0.0304
 -14.100  -1.0645   0.03720   0.03193  -0.0754   1.0000   0.0306
 -14.000  -1.0629   0.03645   0.03117  -0.0752   1.0000   0.0308
 -13.900  -1.0610   0.03577   0.03048  -0.0749   1.0000   0.0309
 -13.800  -1.0590   0.03513   0.02982  -0.0746   1.0000   0.0311
 -13.700  -1.0570   0.03454   0.02921  -0.0742   1.0000   0.0313
 -13.600  -1.0550   0.03396   0.02861  -0.0738   1.0000   0.0314
 -13.500  -1.0532   0.03341   0.02804  -0.0732   1.0000   0.0316
 -13.400  -1.0515   0.03288   0.02747  -0.0726   1.0000   0.0318
 -13.300  -1.0499   0.03236   0.02692  -0.0719   1.0000   0.0320
 -13.200  -1.0486   0.03186   0.02638  -0.0710   1.0000   0.0322
 -13.100  -1.0476   0.03138   0.02587  -0.0700   1.0000   0.0324
 -13.000  -1.0468   0.03093   0.02538  -0.0689   1.0000   0.0326
 -12.900  -1.0464   0.03050   0.02491  -0.0677   1.0000   0.0328
 -12.800  -1.0462   0.03009   0.02446  -0.0663   1.0000   0.0329
 -12.700  -1.0454   0.02969   0.02402  -0.0650   1.0000   0.0332
 -12.600  -1.0435   0.02928   0.02356  -0.0639   1.0000   0.0334
 -12.500  -1.0415   0.02889   0.02313  -0.0627   1.0000   0.0336
 -12.400  -1.0394   0.02851   0.02269  -0.0615   1.0000   0.0338
 -12.300  -1.0371   0.02815   0.02227  -0.0603   1.0000   0.0340
 -12.200  -1.0345   0.02781   0.02188  -0.0592   1.0000   0.0342
 -12.100  -1.0318   0.02750   0.02150  -0.0580   1.0000   0.0344
 -12.000  -1.0295   0.02706   0.02101  -0.0568   1.0000   0.0346
 -11.900  -1.0276   0.02644   0.02039  -0.0556   1.0000   0.0349
 -11.800  -1.0247   0.02602   0.01997  -0.0545   1.0000   0.0352
 -11.700  -1.0213   0.02569   0.01965  -0.0534   1.0000   0.0355
 -11.600  -1.0176   0.02540   0.01936  -0.0523   1.0000   0.0357
 -11.500  -1.0137   0.02515   0.01911  -0.0512   1.0000   0.0360
 -11.400  -1.0097   0.02490   0.01885  -0.0502   1.0000   0.0363
 -11.300  -1.0056   0.02467   0.01860  -0.0491   1.0000   0.0366
 -11.200  -1.0014   0.02443   0.01834  -0.0480   1.0000   0.0370
 -11.100  -0.9972   0.02418   0.01807  -0.0470   1.0000   0.0373
 -11.000  -0.9929   0.02394   0.01779  -0.0459   1.0000   0.0377
 -10.900  -0.9885   0.02369   0.01751  -0.0449   1.0000   0.0380
 -10.800  -0.9840   0.02344   0.01722  -0.0439   1.0000   0.0384
 -10.700  -0.9792   0.02320   0.01694  -0.0428   1.0000   0.0387
 -10.600  -0.9743   0.02298   0.01666  -0.0418   1.0000   0.0391
 -10.500  -0.9692   0.02278   0.01641  -0.0409   1.0000   0.0393
 -10.400  -0.9655   0.02231   0.01593  -0.0398   1.0000   0.0397
 -10.300  -0.9614   0.02190   0.01552  -0.0388   1.0000   0.0401
 -10.200  -0.9566   0.02161   0.01524  -0.0378   1.0000   0.0405
 -10.100  -0.9513   0.02137   0.01500  -0.0370   1.0000   0.0409
 -10.000  -0.9458   0.02115   0.01478  -0.0361   1.0000   0.0413
  -9.900  -0.9400   0.02094   0.01456  -0.0353   1.0000   0.0417
  -9.800  -0.9342   0.02075   0.01435  -0.0345   1.0000   0.0421
  -9.700  -0.9281   0.02055   0.01414  -0.0337   1.0000   0.0426
  -9.600  -0.9184   0.02034   0.01390  -0.0336   0.9996   0.0432
  -9.500  -0.9048   0.02011   0.01362  -0.0343   0.9988   0.0439
  -9.400  -0.8909   0.01992   0.01338  -0.0350   0.9978   0.0446
  -9.300  -0.8781   0.01954   0.01297  -0.0356   0.9969   0.0453
  -9.200  -0.8655   0.01913   0.01259  -0.0362   0.9959   0.0461
  -9.100  -0.8518   0.01889   0.01235  -0.0370   0.9950   0.0468
  -9.000  -0.8377   0.01868   0.01214  -0.0377   0.9942   0.0476
  -8.900  -0.8234   0.01848   0.01193  -0.0385   0.9935   0.0485
  -8.800  -0.8103   0.01827   0.01169  -0.0391   0.9923   0.0493
  -8.700  -0.7972   0.01807   0.01146  -0.0396   0.9910   0.0502
  -8.600  -0.7834   0.01792   0.01125  -0.0402   0.9897   0.0509
  -8.500  -0.7714   0.01746   0.01082  -0.0407   0.9884   0.0520
  -8.400  -0.7579   0.01721   0.01059  -0.0414   0.9872   0.0530
  -8.300  -0.7437   0.01702   0.01040  -0.0421   0.9862   0.0541
  -8.200  -0.7292   0.01685   0.01023  -0.0429   0.9852   0.0553
  -8.100  -0.7144   0.01669   0.01004  -0.0438   0.9844   0.0565
  -8.000  -0.6992   0.01656   0.00986  -0.0447   0.9836   0.0576
  -7.900  -0.6853   0.01618   0.00951  -0.0455   0.9828   0.0590
  -7.800  -0.6705   0.01594   0.00928  -0.0464   0.9822   0.0603
  -7.700  -0.6596   0.01577   0.00911  -0.0464   0.9798   0.0615
  -7.600  -0.6467   0.01561   0.00894  -0.0469   0.9779   0.0629
  -7.500  -0.6328   0.01546   0.00878  -0.0475   0.9764   0.0644
  -7.400  -0.6185   0.01529   0.00857  -0.0482   0.9751   0.0658
  -7.300  -0.6048   0.01497   0.00830  -0.0489   0.9739   0.0678
  -7.200  -0.5899   0.01479   0.00813  -0.0498   0.9729   0.0696
  -7.100  -0.5745   0.01463   0.00797  -0.0507   0.9721   0.0715
  -7.000  -0.5587   0.01450   0.00780  -0.0517   0.9713   0.0734
  -6.900  -0.5436   0.01423   0.00755  -0.0526   0.9706   0.0756
  -6.800  -0.5280   0.01401   0.00736  -0.0536   0.9700   0.0780
  -6.700  -0.5118   0.01386   0.00721  -0.0547   0.9695   0.0805
  -6.600  -0.5028   0.01375   0.00709  -0.0542   0.9657   0.0824
  -6.500  -0.4895   0.01356   0.00689  -0.0547   0.9638   0.0849
  -6.400  -0.4757   0.01333   0.00671  -0.0554   0.9623   0.0878
  -6.300  -0.4613   0.01318   0.00656  -0.0561   0.9610   0.0907
  -6.200  -0.4465   0.01306   0.00642  -0.0568   0.9598   0.0936
  -6.100  -0.4324   0.01283   0.00622  -0.0575   0.9585   0.0971
  -6.000  -0.4181   0.01265   0.00607  -0.0582   0.9574   0.1007
  -5.900  -0.4035   0.01252   0.00593  -0.0589   0.9564   0.1044
  -5.800  -0.3891   0.01234   0.00577  -0.0596   0.9554   0.1083
  -5.700  -0.3808   0.01220   0.00566  -0.0590   0.9514   0.1118
  -5.600  -0.3694   0.01208   0.00555  -0.0590   0.9486   0.1158
  -5.500  -0.3570   0.01197   0.00542  -0.0592   0.9464   0.1197
  -5.400  -0.3447   0.01177   0.00528  -0.0595   0.9444   0.1247
  -5.300  -0.3317   0.01164   0.00516  -0.0598   0.9427   0.1298
  -5.200  -0.3187   0.01150   0.00502  -0.0602   0.9411   0.1349
  -5.100  -0.3073   0.01135   0.00491  -0.0602   0.9387   0.1404
  -5.000  -0.2980   0.01126   0.00483  -0.0597   0.9346   0.1454
  -4.900  -0.2872   0.01112   0.00471  -0.0596   0.9314   0.1510
  -4.800  -0.2757   0.01099   0.00461  -0.0597   0.9287   0.1573
  -4.600  -0.2520   0.01073   0.00438  -0.0598   0.9243   0.1704
  -4.500  -0.2419   0.01065   0.00431  -0.0595   0.9205   0.1769
  -4.400  -0.2319   0.01053   0.00423  -0.0593   0.9165   0.1837
  -4.300  -0.2211   0.01042   0.00414  -0.0591   0.9131   0.1912
  -4.200  -0.2100   0.01030   0.00404  -0.0591   0.9101   0.1986
  -4.100  -0.1984   0.01018   0.00395  -0.0591   0.9075   0.2070
  -4.000  -0.1883   0.01010   0.00388  -0.0588   0.9033   0.2146
  -3.900  -0.1782   0.00999   0.00381  -0.0585   0.8989   0.2230
  -3.800  -0.1674   0.00990   0.00373  -0.0584   0.8952   0.2313
  -3.700  -0.1563   0.00979   0.00364  -0.0583   0.8919   0.2406
  -3.600  -0.1454   0.00970   0.00357  -0.0582   0.8885   0.2495
  -3.500  -0.1353   0.00961   0.00352  -0.0579   0.8836   0.2589
  -3.400  -0.1248   0.00952   0.00345  -0.0577   0.8792   0.2680
  -3.300  -0.1138   0.00944   0.00338  -0.0576   0.8754   0.2783
  -3.200  -0.1028   0.00934   0.00330  -0.0575   0.8719   0.2883
  -3.000  -0.0820   0.00918   0.00320  -0.0571   0.8619   0.3091
  -2.900  -0.0712   0.00910   0.00314  -0.0569   0.8578   0.3200
  -2.800  -0.0603   0.00902   0.00308  -0.0568   0.8537   0.3318
  -2.700  -0.0500   0.00893   0.00304  -0.0566   0.8483   0.3431
  -2.600  -0.0394   0.00886   0.00298  -0.0564   0.8433   0.3549
  -2.500  -0.0286   0.00878   0.00292  -0.0563   0.8390   0.3681
  -2.400  -0.0181   0.00869   0.00288  -0.0561   0.8340   0.3812
  -2.300  -0.0077   0.00861   0.00284  -0.0559   0.8285   0.3950
  -2.200   0.0029   0.00853   0.00279  -0.0557   0.8235   0.4101
  -2.100   0.0135   0.00845   0.00274  -0.0555   0.8190   0.4267
  -2.000   0.0237   0.00836   0.00272  -0.0553   0.8131   0.4442
  -1.900   0.0341   0.00828   0.00268  -0.0551   0.8076   0.4627
  -1.800   0.0445   0.00820   0.00264  -0.0549   0.8028   0.4820
  -1.700   0.0548   0.00812   0.00262  -0.0547   0.7970   0.5014
  -1.600   0.0651   0.00805   0.00260  -0.0544   0.7912   0.5208
  -1.500   0.0754   0.00798   0.00257  -0.0542   0.7860   0.5404
  -1.400   0.0857   0.00792   0.00256  -0.0539   0.7803   0.5597
  -1.300   0.0960   0.00785   0.00254  -0.0537   0.7743   0.5783
  -1.200   0.1063   0.00780   0.00252  -0.0534   0.7688   0.5966
  -1.100   0.1166   0.00775   0.00251  -0.0531   0.7631   0.6149
  -1.000   0.1269   0.00770   0.00251  -0.0529   0.7570   0.6326
  -0.900   0.1371   0.00766   0.00250  -0.0526   0.7512   0.6497
  -0.800   0.1475   0.00763   0.00249  -0.0523   0.7454   0.6666
  -0.700   0.1577   0.00759   0.00249  -0.0520   0.7391   0.6833
  -0.600   0.1680   0.00757   0.00249  -0.0517   0.7334   0.6996
  -0.500   0.1782   0.00753   0.00249  -0.0514   0.7275   0.7156
  -0.400   0.1884   0.00750   0.00250  -0.0511   0.7211   0.7313
  -0.300   0.1986   0.00749   0.00250  -0.0507   0.7153   0.7465
  -0.200   0.2088   0.00747   0.00251  -0.0504   0.7092   0.7615
  -0.100   0.2190   0.00745   0.00252  -0.0501   0.7030   0.7764
  -0.000   0.2291   0.00746   0.00253  -0.0497   0.6972   0.7913
   0.100   0.2392   0.00744   0.00255  -0.0494   0.6910   0.8054
   0.200   0.2494   0.00744   0.00257  -0.0490   0.6848   0.8186
   0.300   0.2595   0.00746   0.00259  -0.0486   0.6790   0.8321
   0.400   0.2697   0.00746   0.00261  -0.0482   0.6730   0.8454
   0.500   0.2798   0.00748   0.00264  -0.0478   0.6667   0.8576
   0.600   0.2899   0.00752   0.00266  -0.0474   0.6611   0.8693
   0.700   0.3002   0.00754   0.00269  -0.0471   0.6549   0.8810
   0.800   0.3107   0.00757   0.00273  -0.0468   0.6488   0.8914
   0.900   0.3208   0.00762   0.00275  -0.0464   0.6434   0.9021
   1.000   0.3321   0.00766   0.00279  -0.0462   0.6374   0.9108
   1.100   0.3446   0.00770   0.00282  -0.0460   0.6300   0.9200
   1.200   0.3546   0.00777   0.00285  -0.0459   0.6258   0.9276
   1.300   0.3657   0.00782   0.00289  -0.0458   0.6200   0.9360
   1.400   0.3788   0.00787   0.00293  -0.0461   0.6140   0.9419
   1.500   0.3914   0.00795   0.00296  -0.0463   0.6085   0.9483
   1.600   0.4036   0.00800   0.00300  -0.0464   0.6028   0.9548
   1.700   0.4186   0.00807   0.00304  -0.0471   0.5967   0.9588
   1.800   0.4325   0.00815   0.00307  -0.0476   0.5912   0.9636
   1.900   0.4453   0.00821   0.00311  -0.0478   0.5857   0.9689
   2.000   0.4620   0.00827   0.00315  -0.0490   0.5796   0.9714
   2.100   0.4783   0.00835   0.00319  -0.0500   0.5740   0.9741
   2.200   0.4946   0.00841   0.00323  -0.0511   0.5684   0.9769
   2.300   0.5098   0.00847   0.00327  -0.0519   0.5626   0.9803
   2.400   0.5259   0.00855   0.00330  -0.0530   0.5571   0.9827
   2.500   0.5433   0.00861   0.00334  -0.0543   0.5515   0.9844
   2.600   0.5605   0.00866   0.00337  -0.0556   0.5455   0.9865
   2.700   0.5769   0.00873   0.00341  -0.0567   0.5400   0.9888
   2.800   0.5930   0.00880   0.00344  -0.0577   0.5347   0.9913
   2.900   0.6092   0.00885   0.00348  -0.0588   0.5289   0.9936
   3.000   0.6265   0.00891   0.00350  -0.0602   0.5232   0.9952
   3.100   0.6435   0.00897   0.00353  -0.0614   0.5178   0.9970
   3.200   0.6611   0.00901   0.00357  -0.0628   0.5119   0.9990
   3.300   0.6749   0.00907   0.00360  -0.0635   0.5064   1.0000
   3.500   0.6926   0.00915   0.00364  -0.0626   0.4971   1.0000
   3.600   0.7014   0.00918   0.00366  -0.0622   0.4921   1.0000
   3.700   0.7101   0.00924   0.00369  -0.0617   0.4873   1.0000
   3.800   0.7188   0.00930   0.00372  -0.0613   0.4828   1.0000
   3.900   0.7279   0.00933   0.00375  -0.0609   0.4778   1.0000
   4.000   0.7366   0.00938   0.00379  -0.0604   0.4727   1.0000
   4.100   0.7451   0.00945   0.00382  -0.0599   0.4680   1.0000
   4.200   0.7541   0.00949   0.00386  -0.0595   0.4633   1.0000
   4.300   0.7630   0.00954   0.00390  -0.0590   0.4581   1.0000
   4.400   0.7716   0.00961   0.00394  -0.0585   0.4530   1.0000
   4.500   0.7802   0.00968   0.00398  -0.0580   0.4483   1.0000
   4.600   0.7893   0.00972   0.00403  -0.0576   0.4431   1.0000
   4.700   0.7980   0.00978   0.00407  -0.0571   0.4378   1.0000
   4.800   0.8063   0.00987   0.00412  -0.0566   0.4328   1.0000
   4.900   0.8154   0.00992   0.00417  -0.0562   0.4276   1.0000
   5.000   0.8243   0.00997   0.00422  -0.0557   0.4220   1.0000
   5.100   0.8327   0.01006   0.00428  -0.0552   0.4167   1.0000
   5.200   0.8416   0.01013   0.00433  -0.0547   0.4114   1.0000
   5.300   0.8505   0.01019   0.00439  -0.0543   0.4055   1.0000
   5.400   0.8589   0.01028   0.00444  -0.0537   0.3997   1.0000
   5.500   0.8678   0.01035   0.00451  -0.0533   0.3941   1.0000
   5.600   0.8767   0.01042   0.00457  -0.0528   0.3878   1.0000
   5.700   0.8850   0.01052   0.00464  -0.0523   0.3818   1.0000
   5.800   0.8939   0.01059   0.00470  -0.0518   0.3757   1.0000
   5.900   0.9026   0.01068   0.00477  -0.0513   0.3690   1.0000
   6.000   0.9108   0.01079   0.00484  -0.0508   0.3628   1.0000
   6.100   0.9198   0.01087   0.00491  -0.0503   0.3559   1.0000
   6.200   0.9280   0.01099   0.00499  -0.0498   0.3491   1.0000
   6.400   0.9453   0.01119   0.00516  -0.0488   0.3350   1.0000
   6.500   0.9537   0.01132   0.00525  -0.0483   0.3282   1.0000
   6.600   0.9624   0.01142   0.00534  -0.0479   0.3206   1.0000
   6.700   0.9705   0.01157   0.00545  -0.0473   0.3134   1.0000
   6.800   0.9794   0.01168   0.00554  -0.0469   0.3057   1.0000
   7.000   0.9964   0.01195   0.00575  -0.0459   0.2904   1.0000
   7.100   1.0044   0.01212   0.00588  -0.0454   0.2824   1.0000
   7.200   1.0131   0.01225   0.00599  -0.0450   0.2746   1.0000
   7.300   1.0211   0.01242   0.00612  -0.0444   0.2665   1.0000
   7.400   1.0297   0.01256   0.00624  -0.0440   0.2586   1.0000
   7.500   1.0376   0.01275   0.00638  -0.0435   0.2504   1.0000
   7.600   1.0461   0.01290   0.00651  -0.0430   0.2424   1.0000
   7.700   1.0538   0.01310   0.00666  -0.0425   0.2342   1.0000
   7.800   1.0623   0.01326   0.00679  -0.0420   0.2262   1.0000
   8.000   1.0782   0.01364   0.00710  -0.0410   0.2102   1.0000
   8.200   1.0938   0.01404   0.00743  -0.0399   0.1944   1.0000
   8.400   1.1091   0.01446   0.00778  -0.0389   0.1793   1.0000
   8.600   1.1241   0.01490   0.00815  -0.0377   0.1650   1.0000
   8.700   1.1309   0.01516   0.00836  -0.0371   0.1580   1.0000
   8.800   1.1387   0.01536   0.00854  -0.0366   0.1516   1.0000
   8.900   1.1455   0.01561   0.00875  -0.0359   0.1451   1.0000
   9.000   1.1528   0.01583   0.00895  -0.0353   0.1393   1.0000
   9.100   1.1597   0.01607   0.00916  -0.0347   0.1334   1.0000
   9.200   1.1662   0.01633   0.00939  -0.0340   0.1280   1.0000
   9.300   1.1735   0.01655   0.00959  -0.0334   0.1229   1.0000
   9.400   1.1794   0.01683   0.00984  -0.0326   0.1179   1.0000
   9.500   1.1861   0.01706   0.01006  -0.0319   0.1136   1.0000
   9.600   1.1922   0.01729   0.01028  -0.0312   0.1093   1.0000
   9.700   1.1970   0.01758   0.01054  -0.0302   0.1054   1.0000
   9.800   1.2031   0.01781   0.01077  -0.0294   0.1019   1.0000
   9.900   1.2091   0.01805   0.01100  -0.0286   0.0984   1.0000
  10.000   1.2140   0.01835   0.01127  -0.0277   0.0951   1.0000
  10.100   1.2187   0.01865   0.01157  -0.0268   0.0921   1.0000
  10.200   1.2252   0.01887   0.01180  -0.0261   0.0894   1.0000
  10.300   1.2308   0.01915   0.01207  -0.0253   0.0866   1.0000
  10.400   1.2352   0.01949   0.01239  -0.0244   0.0841   1.0000
  10.500   1.2396   0.01984   0.01273  -0.0235   0.0817   1.0000
  10.600   1.2461   0.02007   0.01300  -0.0229   0.0796   1.0000
  10.700   1.2517   0.02036   0.01329  -0.0222   0.0774   1.0000
  10.800   1.2563   0.02071   0.01362  -0.0214   0.0754   1.0000
  10.900   1.2597   0.02113   0.01403  -0.0204   0.0735   1.0000
  11.000   1.2647   0.02147   0.01438  -0.0197   0.0718   1.0000
  11.100   1.2708   0.02174   0.01468  -0.0191   0.0701   1.0000
  11.200   1.2760   0.02206   0.01502  -0.0184   0.0685   1.0000
  11.300   1.2804   0.02244   0.01540  -0.0176   0.0670   1.0000
  11.400   1.2837   0.02290   0.01584  -0.0168   0.0655   1.0000
  11.500   1.2855   0.02346   0.01639  -0.0158   0.0641   1.0000
  11.600   1.2916   0.02376   0.01673  -0.0153   0.0630   1.0000
  11.700   1.2969   0.02410   0.01711  -0.0147   0.0617   1.0000
  11.800   1.3017   0.02448   0.01751  -0.0141   0.0605   1.0000
  11.900   1.3058   0.02492   0.01796  -0.0135   0.0593   1.0000
  12.000   1.3091   0.02542   0.01846  -0.0128   0.0583   1.0000
  12.100   1.3110   0.02602   0.01906  -0.0120   0.0572   1.0000
  12.200   1.3122   0.02668   0.01972  -0.0111   0.0563   1.0000
  12.300   1.3177   0.02706   0.02014  -0.0107   0.0554   1.0000
  12.400   1.3224   0.02749   0.02061  -0.0102   0.0544   1.0000
  12.500   1.3266   0.02796   0.02111  -0.0097   0.0535   1.0000
  12.600   1.3305   0.02847   0.02164  -0.0092   0.0526   1.0000
  12.700   1.3336   0.02904   0.02222  -0.0087   0.0518   1.0000
  12.800   1.3359   0.02969   0.02288  -0.0081   0.0511   1.0000
  12.900   1.3369   0.03045   0.02365  -0.0075   0.0504   1.0000
  13.000   1.3361   0.03137   0.02457  -0.0068   0.0497   1.0000
  13.100   1.3396   0.03196   0.02520  -0.0064   0.0491   1.0000
  13.200   1.3436   0.03252   0.02580  -0.0060   0.0484   1.0000
  13.300   1.3471   0.03312   0.02644  -0.0057   0.0478   1.0000
  13.400   1.3502   0.03377   0.02712  -0.0053   0.0471   1.0000
  13.500   1.3530   0.03446   0.02783  -0.0050   0.0465   1.0000
  13.600   1.3557   0.03516   0.02856  -0.0047   0.0459   1.0000
  13.700   1.3578   0.03592   0.02934  -0.0044   0.0454   1.0000
  13.800   1.3590   0.03676   0.03020  -0.0040   0.0448   1.0000
  13.900   1.3593   0.03771   0.03116  -0.0037   0.0443   1.0000
  14.000   1.3583   0.03880   0.03225  -0.0034   0.0438   1.0000
  14.100   1.3571   0.03991   0.03337  -0.0030   0.0433   1.0000
  14.200   1.3604   0.04062   0.03414  -0.0029   0.0429   1.0000
  14.300   1.3630   0.04141   0.03498  -0.0027   0.0424   1.0000
  14.400   1.3652   0.04223   0.03584  -0.0026   0.0419   1.0000
  14.500   1.3669   0.04311   0.03676  -0.0024   0.0415   1.0000
  14.600   1.3685   0.04402   0.03770  -0.0023   0.0410   1.0000
  14.700   1.3697   0.04497   0.03868  -0.0022   0.0406   1.0000
  14.800   1.3708   0.04594   0.03968  -0.0021   0.0402   1.0000
  14.900   1.3717   0.04695   0.04072  -0.0021   0.0398   1.0000
  15.000   1.3722   0.04800   0.04179  -0.0020   0.0395   1.0000
