  
       XFOIL         Version 6.99
  
 Calculated polar for: NACA 2414                                       
  
 1 1 Reynolds number fixed          Mach number fixed         
  
 xtrf =   1.000 (top)        1.000 (bottom)  
 Mach =   0.000     Re =     0.050 e 6     Ncrit =   9.000
  
   alpha    CL        CD       CDp       CM     Top_Xtr  Bot_Xtr
  ------ -------- --------- --------- -------- -------- --------
 -14.800  -0.3571   0.16742   0.15989  -0.0208   1.0000   0.1946
 -14.600  -0.3204   0.15691   0.14938  -0.0207   1.0000   0.1992
 -14.500  -0.3164   0.15571   0.14817  -0.0207   1.0000   0.2016
 -14.400  -0.3147   0.15495   0.14741  -0.0209   1.0000   0.2041
 -14.300  -0.3155   0.15464   0.14709  -0.0211   1.0000   0.2066
 -14.200  -0.3203   0.15517   0.14762  -0.0214   1.0000   0.2089
 -14.100  -0.3305   0.15690   0.14935  -0.0218   1.0000   0.2103
 -14.000  -0.3432   0.15906   0.15152  -0.0221   1.0000   0.2110
 -13.900  -0.3414   0.15746   0.14994  -0.0224   1.0000   0.2118
 -13.800  -0.3199   0.15202   0.14448  -0.0222   1.0000   0.2141
 -13.700  -0.3115   0.14999   0.14244  -0.0221   1.0000   0.2168
 -13.600  -0.3084   0.14900   0.14144  -0.0221   1.0000   0.2199
 -13.500  -0.3090   0.14862   0.14106  -0.0223   1.0000   0.2230
 -13.400  -0.3147   0.14910   0.14154  -0.0225   1.0000   0.2258
 -13.300  -0.3260   0.15053   0.14298  -0.0230   1.0000   0.2274
 -13.200  -0.3395   0.15223   0.14470  -0.0233   1.0000   0.2281
 -13.100  -0.3179   0.14682   0.13929  -0.0232   1.0000   0.2303
 -13.000  -0.3069   0.14435   0.13680  -0.0231   1.0000   0.2330
 -12.900  -0.3024   0.14309   0.13553  -0.0230   1.0000   0.2359
 -12.800  -0.3014   0.14229   0.13474  -0.0231   1.0000   0.2389
 -12.700  -0.3047   0.14211   0.13456  -0.0233   1.0000   0.2420
 -12.600  -0.3155   0.14305   0.13552  -0.0237   1.0000   0.2442
 -12.500  -0.3310   0.14447   0.13696  -0.0239   1.0000   0.2452
 -12.400  -0.3187   0.14111   0.13360  -0.0241   1.0000   0.2466
 -12.300  -0.3011   0.13778   0.13025  -0.0238   1.0000   0.2498
 -12.200  -0.2952   0.13638   0.12884  -0.0237   1.0000   0.2534
 -12.100  -0.2951   0.13566   0.12813  -0.0237   1.0000   0.2572
 -12.000  -0.3030   0.13588   0.12836  -0.0239   1.0000   0.2606
 -11.900  -0.3180   0.13685   0.12935  -0.0241   1.0000   0.2622
 -11.800  -0.3248   0.13631   0.12885  -0.0244   1.0000   0.2632
 -11.700  -0.2966   0.13174   0.12424  -0.0241   1.0000   0.2669
 -11.600  -0.2902   0.13026   0.12275  -0.0240   1.0000   0.2702
 -11.500  -0.2893   0.12933   0.12183  -0.0239   1.0000   0.2739
 -11.400  -0.2956   0.12913   0.12164  -0.0240   1.0000   0.2776
 -11.300  -0.3121   0.12993   0.12247  -0.0242   1.0000   0.2797
 -11.100  -0.2935   0.12532   0.11786  -0.0241   1.0000   0.2840
 -11.000  -0.2850   0.12374   0.11626  -0.0239   1.0000   0.2882
 -10.900  -0.2854   0.12291   0.11544  -0.0238   1.0000   0.2927
 -10.800  -0.2969   0.12301   0.11556  -0.0238   1.0000   0.2964
 -10.700  -0.3147   0.12352   0.11613  -0.0240   1.0000   0.2978
 -10.600  -0.2921   0.11988   0.11246  -0.0238   1.0000   0.3010
 -10.500  -0.2813   0.11812   0.11068  -0.0236   1.0000   0.3051
 -10.400  -0.2800   0.11709   0.10966  -0.0234   1.0000   0.3094
 -10.300  -0.2895   0.11686   0.10946  -0.0233   1.0000   0.3137
 -10.200  -0.3093   0.11734   0.10999  -0.0233   1.0000   0.3157
 -10.000  -0.2789   0.11230   0.10492  -0.0230   1.0000   0.3219
  -9.900  -0.2758   0.11119   0.10381  -0.0228   1.0000   0.3269
  -9.800  -0.2858   0.11089   0.10354  -0.0226   1.0000   0.3317
  -9.700  -0.3049   0.11107   0.10378  -0.0224   1.0000   0.3336
  -9.600  -0.2813   0.10785   0.10053  -0.0223   1.0000   0.3375
  -9.500  -0.2721   0.10637   0.09904  -0.0220   1.0000   0.3425
  -9.400  -0.2752   0.10557   0.09825  -0.0217   1.0000   0.3477
  -9.300  -0.2941   0.10568   0.09843  -0.0213   1.0000   0.3512
  -9.200  -0.2922   0.10392   0.09669  -0.0212   1.0000   0.3532
  -9.100  -0.2744   0.10165   0.09438  -0.0211   1.0000   0.3569
  -9.000  -0.2691   0.10041   0.09314  -0.0207   1.0000   0.3619
  -8.900  -0.2780   0.09988   0.09265  -0.0202   1.0000   0.3675
  -8.800  -0.2996   0.09993   0.09278  -0.0196   1.0000   0.3699
  -8.700  -0.2748   0.09699   0.08979  -0.0196   1.0000   0.3741
  -8.600  -0.2667   0.09566   0.08845  -0.0193   1.0000   0.3796
  -8.500  -0.2754   0.09508   0.08792  -0.0186   1.0000   0.3855
  -8.400  -0.2970   0.09504   0.08796  -0.0177   1.0000   0.3880
  -8.300  -0.2777   0.09239   0.08528  -0.0179   1.0000   0.3912
  -8.200  -0.2683   0.09084   0.08372  -0.0176   1.0000   0.3950
  -8.100  -0.2677   0.08978   0.08267  -0.0171   1.0000   0.4000
  -8.000  -0.2849   0.08953   0.08249  -0.0160   1.0000   0.4051
  -7.800  -0.2725   0.08620   0.07917  -0.0155   1.0000   0.4114
  -7.700  -0.2681   0.08499   0.07796  -0.0150   1.0000   0.4160
  -7.600  -0.2752   0.08418   0.07720  -0.0141   1.0000   0.4209
  -7.500  -0.2945   0.08383   0.07693  -0.0128   1.0000   0.4238
  -7.400  -0.3070   0.08299   0.07615  -0.0118   1.0000   0.4244
  -7.300  -0.3078   0.08143   0.07463  -0.0114   1.0000   0.4249
  -7.200  -0.3154   0.08033   0.07356  -0.0106   1.0000   0.4244
  -7.000  -0.6128   0.04245   0.03505  -0.0285   1.0000   0.1922
  -6.900  -0.6170   0.04060   0.03306  -0.0277   1.0000   0.1924
  -6.800  -0.6207   0.03876   0.03104  -0.0269   1.0000   0.1929
  -6.700  -0.6239   0.03696   0.02903  -0.0261   1.0000   0.1936
  -6.600  -0.6265   0.03520   0.02701  -0.0253   1.0000   0.1945
  -6.500  -0.6177   0.03477   0.02680  -0.0247   1.0000   0.1972
  -6.400  -0.6116   0.03431   0.02640  -0.0239   1.0000   0.1999
  -6.300  -0.6085   0.03335   0.02538  -0.0232   1.0000   0.2022
  -6.200  -0.6064   0.03216   0.02407  -0.0225   1.0000   0.2043
  -6.100  -0.6045   0.03084   0.02257  -0.0219   1.0000   0.2064
  -6.000  -0.6027   0.02947   0.02096  -0.0213   1.0000   0.2088
  -5.900  -0.6010   0.02804   0.01919  -0.0208   1.0000   0.2112
  -5.800  -0.5940   0.02744   0.01875  -0.0202   1.0000   0.2142
  -5.700  -0.5874   0.02701   0.01840  -0.0196   1.0000   0.2177
  -5.600  -0.5821   0.02624   0.01755  -0.0190   1.0000   0.2212
  -5.500  -0.5774   0.02520   0.01632  -0.0185   1.0000   0.2249
  -5.400  -0.5729   0.02409   0.01493  -0.0181   1.0000   0.2287
  -5.300  -0.5657   0.02364   0.01463  -0.0176   1.0000   0.2325
  -5.200  -0.5591   0.02315   0.01417  -0.0170   1.0000   0.2367
  -5.100  -0.5530   0.02239   0.01326  -0.0166   1.0000   0.2416
  -5.000  -0.5468   0.02149   0.01216  -0.0163   1.0000   0.2465
  -4.900  -0.5395   0.02111   0.01190  -0.0158   1.0000   0.2511
  -4.800  -0.5325   0.02062   0.01139  -0.0153   1.0000   0.2567
  -4.700  -0.5257   0.01984   0.01035  -0.0151   1.0000   0.2631
  -4.600  -0.5182   0.01942   0.01009  -0.0146   1.0000   0.2680
  -4.500  -0.5110   0.01900   0.00966  -0.0142   1.0000   0.2745
  -4.400  -0.5038   0.01839   0.00889  -0.0139   1.0000   0.2816
  -4.300  -0.4965   0.01805   0.00868  -0.0134   1.0000   0.2878
  -4.200  -0.4891   0.01758   0.00811  -0.0131   1.0000   0.2956
  -4.100  -0.4818   0.01715   0.00774  -0.0127   1.0000   0.3026
  -4.000  -0.4747   0.01682   0.00740  -0.0123   1.0000   0.3109
  -3.900  -0.4672   0.01638   0.00693  -0.0120   1.0000   0.3191
  -3.800  -0.4601   0.01608   0.00670  -0.0115   1.0000   0.3275
  -3.700  -0.4528   0.01570   0.00628  -0.0112   1.0000   0.3369
  -3.600  -0.4457   0.01543   0.00608  -0.0108   1.0000   0.3464
  -3.500  -0.4385   0.01510   0.00575  -0.0104   1.0000   0.3562
  -3.400  -0.4313   0.01482   0.00549  -0.0101   1.0000   0.3671
  -3.300  -0.4244   0.01456   0.00532  -0.0096   1.0000   0.3773
  -3.200  -0.4171   0.01429   0.00503  -0.0093   1.0000   0.3898
  -3.100  -0.4103   0.01408   0.00492  -0.0088   1.0000   0.4010
  -3.000  -0.4034   0.01387   0.00477  -0.0084   1.0000   0.4129
  -2.900  -0.3963   0.01367   0.00459  -0.0080   1.0000   0.4268
  -2.800  -0.3894   0.01351   0.00449  -0.0076   1.0000   0.4407
  -2.700  -0.3828   0.01337   0.00447  -0.0071   1.0000   0.4538
  -2.600  -0.3764   0.01323   0.00441  -0.0065   1.0000   0.4685
  -2.500  -0.3700   0.01312   0.00437  -0.0060   1.0000   0.4840
  -2.400  -0.3635   0.01302   0.00434  -0.0055   1.0000   0.5004
  -2.300  -0.3572   0.01294   0.00434  -0.0050   1.0000   0.5175
  -2.200  -0.3510   0.01288   0.00436  -0.0044   1.0000   0.5352
  -2.100  -0.3450   0.01284   0.00441  -0.0037   1.0000   0.5535
  -2.000  -0.3390   0.01281   0.00449  -0.0031   1.0000   0.5725
  -1.900  -0.3333   0.01280   0.00460  -0.0023   1.0000   0.5922
  -1.800  -0.3280   0.01281   0.00472  -0.0014   1.0000   0.6127
  -1.700  -0.3199   0.01284   0.00489  -0.0009   0.9987   0.6374
  -1.600  -0.3020   0.01301   0.00521  -0.0018   0.9933   0.6714
  -1.500  -0.2891   0.01312   0.00546  -0.0018   0.9878   0.7048
  -1.400  -0.2727   0.01340   0.00588  -0.0022   0.9820   0.7403
  -1.300  -0.2638   0.01352   0.00610  -0.0013   0.9763   0.7738
  -1.200  -0.2498   0.01391   0.00660  -0.0010   0.9705   0.8084
  -1.100  -0.2395   0.01419   0.00697  -0.0000   0.9648   0.8424
  -1.000  -0.2192   0.01480   0.00761  -0.0009   0.9586   0.8808
  -0.900  -0.1834   0.01584   0.00860  -0.0047   0.9519   0.9203
  -0.800  -0.1242   0.01745   0.01008  -0.0130   0.9441   0.9508
  -0.700  -0.0487   0.01928   0.01176  -0.0247   0.9367   0.9726
  -0.600   0.0204   0.02046   0.01281  -0.0357   0.9294   0.9932
  -0.500   0.0578   0.02058   0.01282  -0.0418   0.9241   1.0000
  -0.400   0.0467   0.01966   0.01182  -0.0400   0.9186   1.0000
  -0.300   0.0442   0.01898   0.01105  -0.0394   0.9134   1.0000
  -0.200   0.0531   0.01864   0.01062  -0.0403   0.9088   1.0000
  -0.100   0.0524   0.01818   0.01007  -0.0395   0.9040   1.0000
  -0.000   0.0497   0.01787   0.00967  -0.0383   0.8985   1.0000
   0.100   0.0613   0.01788   0.00959  -0.0392   0.8932   1.0000
   0.200   0.0746   0.01797   0.00961  -0.0402   0.8883   1.0000
   0.300   0.0713   0.01799   0.00955  -0.0387   0.8824   1.0000
   0.400   0.0824   0.01813   0.00962  -0.0393   0.8771   1.0000
   0.500   0.1056   0.01832   0.00974  -0.0416   0.8725   1.0000
   0.600   0.0989   0.01851   0.00986  -0.0395   0.8663   1.0000
   0.700   0.1089   0.01871   0.01000  -0.0398   0.8606   1.0000
   0.800   0.1302   0.01888   0.01011  -0.0417   0.8560   1.0000
   0.900   0.1298   0.01920   0.01037  -0.0405   0.8503   1.0000
   1.000   0.1364   0.01947   0.01060  -0.0402   0.8446   1.0000
   1.100   0.1552   0.01963   0.01072  -0.0418   0.8397   1.0000
   1.200   0.1637   0.01994   0.01097  -0.0417   0.8344   1.0000
   1.300   0.1658   0.02031   0.01130  -0.0408   0.8284   1.0000
   1.400   0.1818   0.02050   0.01145  -0.0419   0.8233   1.0000
   1.500   0.2028   0.02064   0.01156  -0.0436   0.8192   1.0000
   1.600   0.1958   0.02121   0.01209  -0.0414   0.8126   1.0000
   1.700   0.2079   0.02146   0.01231  -0.0419   0.8073   1.0000
   1.800   0.2317   0.02150   0.01233  -0.0438   0.8030   1.0000
   1.900   0.2274   0.02213   0.01291  -0.0421   0.7969   1.0000
   2.000   0.2346   0.02250   0.01326  -0.0418   0.7913   1.0000
   2.100   0.2546   0.02258   0.01333  -0.0432   0.7867   1.0000
   2.200   0.2620   0.02299   0.01371  -0.0430   0.7815   1.0000
   2.300   0.2623   0.02357   0.01426  -0.0419   0.7754   1.0000
   2.400   0.2789   0.02371   0.01439  -0.0428   0.7704   1.0000
   2.500   0.3044   0.02362   0.01429  -0.0447   0.7666   1.0000
   2.600   0.2906   0.02468   0.01532  -0.0420   0.7597   1.0000
   2.700   0.3022   0.02496   0.01559  -0.0422   0.7544   1.0000
   2.800   0.3275   0.02480   0.01543  -0.0440   0.7502   1.0000
   2.900   0.3210   0.02572   0.01633  -0.0421   0.7439   1.0000
   3.000   0.3267   0.02624   0.01683  -0.0417   0.7383   1.0000
   3.100   0.3479   0.02617   0.01676  -0.0429   0.7338   1.0000
   3.200   0.3551   0.02666   0.01724  -0.0426   0.7286   1.0000
   3.300   0.3520   0.02752   0.01809  -0.0413   0.7222   1.0000
   3.400   0.3697   0.02756   0.01814  -0.0420   0.7173   1.0000
   3.500   0.4000   0.02707   0.01766  -0.0440   0.7137   1.0000
   3.600   0.3779   0.02885   0.01941  -0.0409   0.7062   1.0000
   3.700   0.3906   0.02907   0.01964  -0.0411   0.7009   1.0000
   3.800   0.4193   0.02856   0.01915  -0.0427   0.6970   1.0000
   3.900   0.4053   0.03010   0.02066  -0.0405   0.6900   1.0000
   4.000   0.4128   0.03059   0.02116  -0.0402   0.6844   1.0000
   4.100   0.4384   0.03015   0.02074  -0.0414   0.6802   1.0000
   4.300   0.4349   0.03215   0.02274  -0.0393   0.6678   1.0000
   4.400   0.4592   0.03171   0.02232  -0.0403   0.6632   1.0000
   4.500   0.4666   0.03225   0.02287  -0.0399   0.6580   1.0000
   4.600   0.4572   0.03376   0.02437  -0.0384   0.6511   1.0000
   4.700   0.4784   0.03343   0.02407  -0.0390   0.6463   1.0000
   5.000   0.4991   0.03509   0.02576  -0.0378   0.6291   1.0000
   5.100   0.5378   0.03351   0.02424  -0.0394   0.6256   1.0000
   5.300   0.5197   0.03680   0.02751  -0.0366   0.6118   1.0000
   5.400   0.5612   0.03484   0.02561  -0.0380   0.6082   1.0000
   5.600   0.5404   0.03853   0.02929  -0.0353   0.5943   1.0000
   5.700   0.5853   0.03611   0.02694  -0.0366   0.5907   1.0000
   5.800   0.5442   0.04049   0.03127  -0.0340   0.5822   1.0000
   5.900   0.5629   0.04009   0.03092  -0.0340   0.5766   1.0000
   6.000   0.6134   0.03700   0.02790  -0.0353   0.5731   1.0000
   6.200   0.5857   0.04162   0.03251  -0.0326   0.5588   1.0000
   6.300   0.6485   0.03716   0.02814  -0.0340   0.5555   1.0000
   6.400   0.5829   0.04424   0.03515  -0.0311   0.5462   1.0000
   6.500   0.6109   0.04285   0.03381  -0.0312   0.5407   1.0000
   6.600   0.6971   0.03608   0.02718  -0.0332   0.5377   1.0000
   6.700   0.6017   0.04614   0.03712  -0.0296   0.5278   1.0000
   6.800   0.6430   0.04330   0.03436  -0.0297   0.5225   1.0000
   6.900   0.7674   0.03299   0.02421  -0.0334   0.5192   1.0000
   7.000   0.6217   0.04789   0.03895  -0.0280   0.5092   1.0000
   7.100   0.6937   0.04159   0.03277  -0.0282   0.5046   1.0000
   7.300   0.6485   0.04882   0.03997  -0.0263   0.4902   1.0000
   7.400   0.8436   0.03106   0.02241  -0.0315   0.4835   1.0000
   7.600   0.9610   0.03951   0.03036  -0.0397   0.4747   1.0000
   7.700   0.9900   0.03817   0.02892  -0.0403   0.4659   1.0000
   7.800   0.9846   0.03921   0.03008  -0.0385   0.4574   1.0000
   7.900   1.0095   0.03815   0.02890  -0.0388   0.4480   1.0000
   8.000   1.0073   0.03896   0.02981  -0.0372   0.4393   1.0000
   8.100   1.0271   0.03827   0.02902  -0.0372   0.4298   1.0000
   8.200   1.0297   0.03871   0.02953  -0.0359   0.4206   1.0000
   8.300   1.0433   0.03847   0.02922  -0.0355   0.4112   1.0000
   8.400   1.0524   0.03846   0.02921  -0.0347   0.4015   1.0000
   8.500   1.0589   0.03870   0.02946  -0.0337   0.3923   1.0000
   8.600   1.0779   0.03806   0.02866  -0.0337   0.3817   1.0000
   8.700   1.0748   0.03893   0.02967  -0.0320   0.3732   1.0000
   8.800   1.0930   0.03838   0.02894  -0.0320   0.3627   1.0000
   8.900   1.0914   0.03912   0.02979  -0.0303   0.3540   1.0000
   9.000   1.1043   0.03899   0.02955  -0.0299   0.3442   1.0000
   9.100   1.1090   0.03933   0.02991  -0.0289   0.3350   1.0000
   9.200   1.1163   0.03961   0.03015  -0.0280   0.3261   1.0000
   9.300   1.1269   0.03964   0.03009  -0.0275   0.3164   1.0000
   9.400   1.1286   0.04032   0.03083  -0.0262   0.3086   1.0000
   9.500   1.1431   0.04020   0.03051  -0.0261   0.2987   1.0000
   9.600   1.1409   0.04112   0.03158  -0.0245   0.2919   1.0000
   9.700   1.1548   0.04113   0.03140  -0.0244   0.2827   1.0000
   9.800   1.1535   0.04205   0.03245  -0.0229   0.2763   1.0000
   9.900   1.1619   0.04237   0.03270  -0.0223   0.2683   1.0000
  10.000   1.1670   0.04304   0.03335  -0.0214   0.2617   1.0000
  10.100   1.1681   0.04383   0.03423  -0.0202   0.2555   1.0000
  10.200   1.1830   0.04405   0.03424  -0.0204   0.2478   1.0000
  10.300   1.1783   0.04516   0.03556  -0.0186   0.2432   1.0000
  10.400   1.1866   0.04562   0.03596  -0.0181   0.2367   1.0000
  10.500   1.1948   0.04632   0.03659  -0.0177   0.2310   1.0000
  10.600   1.1909   0.04745   0.03790  -0.0161   0.2271   1.0000
  10.700   1.1972   0.04807   0.03850  -0.0155   0.2217   1.0000
  10.800   1.2097   0.04863   0.03892  -0.0155   0.2160   1.0000
  10.900   1.2032   0.04990   0.04040  -0.0138   0.2132   1.0000
  11.000   1.2017   0.05098   0.04159  -0.0125   0.2097   1.0000
  11.100   1.2178   0.05131   0.04176  -0.0128   0.2038   1.0000
  11.200   1.2211   0.05239   0.04286  -0.0121   0.2004   1.0000
  11.300   1.2128   0.05378   0.04444  -0.0103   0.1986   1.0000
  11.400   1.2059   0.05512   0.04594  -0.0087   0.1965   1.0000
  11.500   1.2028   0.05629   0.04721  -0.0075   0.1939   1.0000
  11.600   1.2380   0.05622   0.04677  -0.0095   0.1865   1.0000
  11.700   1.2271   0.05771   0.04847  -0.0076   0.1856   1.0000
  11.800   1.2160   0.05926   0.05020  -0.0058   0.1847   1.0000
  11.900   1.2039   0.06078   0.05187  -0.0040   0.1840   1.0000
  12.000   1.1912   0.06239   0.05361  -0.0022   0.1834   1.0000
  12.100   1.1777   0.06414   0.05548  -0.0007   0.1830   1.0000
  12.200   1.1630   0.06609   0.05755   0.0005   0.1828   1.0000
  12.300   1.1468   0.06829   0.05985   0.0015   0.1828   1.0000
  12.400   1.1290   0.07078   0.06244   0.0022   0.1830   1.0000
  12.500   1.1096   0.07364   0.06539   0.0025   0.1835   1.0000
  12.600   1.0891   0.07689   0.06873   0.0022   0.1841   1.0000
  12.700   1.0675   0.08057   0.07248   0.0016   0.1849   1.0000
  12.800   1.0456   0.08468   0.07663   0.0004   0.1856   1.0000
  12.900   1.0240   0.08916   0.08116  -0.0012   0.1863   1.0000
