  
       XFOIL         Version 6.99
  
 Calculated polar for: NACA 2414                                       
  
 1 1 Reynolds number fixed          Mach number fixed         
  
 xtrf =   1.000 (top)        1.000 (bottom)  
 Mach =   0.000     Re =     0.850 e 6     Ncrit =   9.000
  
   alpha    CL        CD       CDp       CM     Top_Xtr  Bot_Xtr
  ------ -------- --------- --------- -------- -------- --------
 -15.000  -1.1961   0.03084   0.02619  -0.0731   1.0000   0.0222
 -14.900  -1.1938   0.03014   0.02545  -0.0730   1.0000   0.0223
 -14.800  -1.1910   0.02952   0.02478  -0.0728   1.0000   0.0224
 -14.700  -1.1882   0.02892   0.02414  -0.0726   1.0000   0.0224
 -14.600  -1.1851   0.02837   0.02355  -0.0723   1.0000   0.0225
 -14.500  -1.1842   0.02770   0.02284  -0.0718   1.0000   0.0226
 -14.400  -1.1864   0.02686   0.02196  -0.0710   1.0000   0.0228
 -14.300  -1.1875   0.02616   0.02123  -0.0701   1.0000   0.0229
 -14.200  -1.1873   0.02559   0.02063  -0.0692   1.0000   0.0231
 -14.100  -1.1867   0.02509   0.02011  -0.0682   1.0000   0.0232
 -14.000  -1.1856   0.02466   0.01967  -0.0671   1.0000   0.0233
 -13.900  -1.1842   0.02430   0.01928  -0.0659   1.0000   0.0235
 -13.800  -1.1829   0.02397   0.01894  -0.0646   1.0000   0.0236
 -13.700  -1.1812   0.02368   0.01863  -0.0633   1.0000   0.0237
 -13.600  -1.1781   0.02339   0.01832  -0.0622   1.0000   0.0239
 -13.500  -1.1747   0.02312   0.01803  -0.0612   1.0000   0.0240
 -13.400  -1.1712   0.02285   0.01775  -0.0601   1.0000   0.0242
 -13.300  -1.1674   0.02261   0.01748  -0.0591   1.0000   0.0243
 -13.200  -1.1636   0.02236   0.01722  -0.0580   1.0000   0.0245
 -13.100  -1.1597   0.02213   0.01697  -0.0570   1.0000   0.0247
 -13.000  -1.1557   0.02191   0.01673  -0.0559   1.0000   0.0249
 -12.900  -1.1517   0.02169   0.01649  -0.0548   1.0000   0.0251
 -12.800  -1.1476   0.02148   0.01625  -0.0537   1.0000   0.0252
 -12.700  -1.1434   0.02128   0.01603  -0.0526   1.0000   0.0254
 -12.600  -1.1391   0.02109   0.01581  -0.0515   1.0000   0.0256
 -12.500  -1.1346   0.02091   0.01560  -0.0505   1.0000   0.0258
 -12.400  -1.1299   0.02074   0.01541  -0.0494   1.0000   0.0259
 -12.300  -1.1250   0.02058   0.01521  -0.0484   1.0000   0.0261
 -12.200  -1.1213   0.02034   0.01495  -0.0472   1.0000   0.0262
 -12.100  -1.1204   0.01993   0.01453  -0.0456   1.0000   0.0265
 -12.000  -1.1178   0.01962   0.01420  -0.0443   1.0000   0.0267
 -11.900  -1.1142   0.01935   0.01393  -0.0431   1.0000   0.0270
 -11.800  -1.1098   0.01913   0.01369  -0.0421   1.0000   0.0272
 -11.700  -1.1050   0.01892   0.01348  -0.0411   1.0000   0.0274
 -11.600  -1.0955   0.01870   0.01324  -0.0410   0.9997   0.0277
 -11.500  -1.0832   0.01848   0.01301  -0.0415   0.9992   0.0280
 -11.400  -1.0708   0.01826   0.01277  -0.0419   0.9986   0.0283
 -11.300  -1.0583   0.01805   0.01254  -0.0424   0.9980   0.0287
 -11.200  -1.0457   0.01784   0.01232  -0.0429   0.9974   0.0290
 -11.100  -1.0330   0.01764   0.01210  -0.0434   0.9968   0.0294
 -11.000  -1.0201   0.01746   0.01188  -0.0439   0.9962   0.0297
 -10.900  -1.0070   0.01729   0.01169  -0.0445   0.9956   0.0300
 -10.800  -0.9944   0.01704   0.01141  -0.0450   0.9950   0.0303
 -10.700  -0.9826   0.01665   0.01102  -0.0455   0.9944   0.0309
 -10.600  -0.9699   0.01640   0.01076  -0.0460   0.9940   0.0314
 -10.500  -0.9566   0.01619   0.01056  -0.0466   0.9936   0.0318
 -10.400  -0.9442   0.01602   0.01038  -0.0470   0.9928   0.0323
 -10.300  -0.9322   0.01586   0.01021  -0.0473   0.9919   0.0327
 -10.200  -0.9199   0.01569   0.01003  -0.0477   0.9909   0.0332
 -10.100  -0.9072   0.01554   0.00985  -0.0481   0.9900   0.0337
 -10.000  -0.8944   0.01539   0.00968  -0.0486   0.9891   0.0341
  -9.900  -0.8812   0.01526   0.00953  -0.0491   0.9883   0.0345
  -9.800  -0.8691   0.01493   0.00920  -0.0495   0.9874   0.0351
  -9.700  -0.8564   0.01468   0.00895  -0.0500   0.9866   0.0358
  -9.600  -0.8432   0.01449   0.00876  -0.0506   0.9860   0.0364
  -9.500  -0.8297   0.01432   0.00859  -0.0512   0.9854   0.0370
  -9.400  -0.8159   0.01417   0.00843  -0.0518   0.9848   0.0376
  -9.300  -0.8020   0.01402   0.00827  -0.0525   0.9843   0.0382
  -9.200  -0.7880   0.01389   0.00812  -0.0532   0.9839   0.0388
  -9.100  -0.7737   0.01378   0.00799  -0.0539   0.9834   0.0394
  -9.000  -0.7602   0.01350   0.00771  -0.0545   0.9830   0.0404
  -8.900  -0.7463   0.01329   0.00752  -0.0553   0.9826   0.0413
  -8.800  -0.7320   0.01314   0.00736  -0.0560   0.9823   0.0421
  -8.700  -0.7213   0.01301   0.00723  -0.0559   0.9803   0.0428
  -8.600  -0.7090   0.01288   0.00710  -0.0562   0.9789   0.0436
  -8.500  -0.6961   0.01276   0.00696  -0.0566   0.9777   0.0443
  -8.400  -0.6830   0.01264   0.00683  -0.0570   0.9765   0.0450
  -8.300  -0.6707   0.01240   0.00659  -0.0574   0.9752   0.0462
  -8.200  -0.6578   0.01223   0.00643  -0.0578   0.9741   0.0473
  -8.100  -0.6445   0.01209   0.00629  -0.0583   0.9730   0.0483
  -8.000  -0.6311   0.01196   0.00616  -0.0588   0.9720   0.0494
  -7.900  -0.6178   0.01185   0.00604  -0.0593   0.9710   0.0504
  -7.800  -0.6047   0.01172   0.00590  -0.0597   0.9699   0.0514
  -7.700  -0.5950   0.01154   0.00573  -0.0594   0.9673   0.0529
  -7.600  -0.5848   0.01141   0.00561  -0.0592   0.9645   0.0541
  -7.500  -0.5737   0.01129   0.00550  -0.0592   0.9622   0.0553
  -7.400  -0.5622   0.01119   0.00539  -0.0593   0.9601   0.0565
  -7.300  -0.5505   0.01110   0.00528  -0.0593   0.9582   0.0575
  -7.200  -0.5391   0.01094   0.00512  -0.0594   0.9564   0.0592
  -7.100  -0.5285   0.01080   0.00500  -0.0593   0.9541   0.0608
  -7.000  -0.5188   0.01070   0.00490  -0.0590   0.9509   0.0623
  -6.900  -0.5084   0.01061   0.00481  -0.0588   0.9480   0.0638
  -6.800  -0.4976   0.01053   0.00472  -0.0586   0.9454   0.0651
  -6.700  -0.4870   0.01039   0.00458  -0.0585   0.9431   0.0672
  -6.600  -0.4761   0.01027   0.00447  -0.0584   0.9409   0.0693
  -6.500  -0.4655   0.01017   0.00438  -0.0583   0.9384   0.0712
  -6.400  -0.4551   0.01010   0.00430  -0.0581   0.9352   0.0730
  -6.300  -0.4447   0.01002   0.00421  -0.0579   0.9320   0.0747
  -6.200  -0.4343   0.00988   0.00409  -0.0577   0.9291   0.0774
  -6.100  -0.4236   0.00978   0.00400  -0.0576   0.9263   0.0799
  -6.000  -0.4126   0.00971   0.00391  -0.0575   0.9238   0.0823
  -5.900  -0.4021   0.00963   0.00383  -0.0573   0.9204   0.0844
  -5.800  -0.3918   0.00951   0.00374  -0.0571   0.9168   0.0877
  -5.700  -0.3812   0.00942   0.00365  -0.0570   0.9134   0.0907
  -5.600  -0.3703   0.00935   0.00357  -0.0569   0.9104   0.0933
  -5.500  -0.3594   0.00927   0.00349  -0.0568   0.9075   0.0964
  -5.400  -0.3489   0.00917   0.00341  -0.0566   0.9041   0.1003
  -5.300  -0.3381   0.00909   0.00334  -0.0565   0.9004   0.1037
  -5.100  -0.3167   0.00892   0.00318  -0.0563   0.8930   0.1114
  -4.900  -0.2949   0.00879   0.00305  -0.0561   0.8858   0.1188
  -4.800  -0.2842   0.00869   0.00298  -0.0560   0.8817   0.1241
  -4.700  -0.2734   0.00862   0.00291  -0.0558   0.8776   0.1289
  -4.500  -0.2517   0.00848   0.00278  -0.0556   0.8701   0.1388
  -4.400  -0.2408   0.00841   0.00272  -0.0555   0.8657   0.1442
  -4.300  -0.2299   0.00835   0.00266  -0.0555   0.8613   0.1492
  -4.200  -0.2192   0.00827   0.00260  -0.0553   0.8571   0.1556
  -4.100  -0.2082   0.00822   0.00255  -0.0553   0.8530   0.1612
  -4.000  -0.1973   0.00815   0.00250  -0.0552   0.8484   0.1674
  -3.900  -0.1864   0.00808   0.00244  -0.0551   0.8437   0.1739
  -3.800  -0.1755   0.00804   0.00239  -0.0550   0.8392   0.1797
  -3.700  -0.1646   0.00796   0.00234  -0.0549   0.8348   0.1873
  -3.600  -0.1536   0.00792   0.00229  -0.0548   0.8298   0.1938
  -3.500  -0.1428   0.00785   0.00225  -0.0547   0.8248   0.2013
  -3.400  -0.1319   0.00781   0.00220  -0.0546   0.8201   0.2086
  -3.300  -0.1209   0.00775   0.00216  -0.0546   0.8153   0.2161
  -3.200  -0.1100   0.00769   0.00212  -0.0545   0.8100   0.2243
  -3.100  -0.0991   0.00765   0.00208  -0.0544   0.8048   0.2318
  -3.000  -0.0882   0.00760   0.00204  -0.0543   0.8000   0.2405
  -2.900  -0.0771   0.00755   0.00201  -0.0542   0.7945   0.2484
  -2.800  -0.0663   0.00750   0.00197  -0.0542   0.7889   0.2576
  -2.700  -0.0554   0.00747   0.00193  -0.0541   0.7838   0.2658
  -2.600  -0.0444   0.00741   0.00191  -0.0540   0.7784   0.2755
  -2.500  -0.0334   0.00737   0.00187  -0.0539   0.7727   0.2843
  -2.400  -0.0227   0.00734   0.00184  -0.0538   0.7672   0.2942
  -2.300  -0.0116   0.00728   0.00182  -0.0538   0.7617   0.3036
  -2.200  -0.0007   0.00725   0.00179  -0.0537   0.7557   0.3141
  -2.100   0.0101   0.00721   0.00176  -0.0536   0.7501   0.3241
  -1.900   0.0320   0.00713   0.00172  -0.0534   0.7384   0.3459
  -1.800   0.0427   0.00710   0.00169  -0.0533   0.7326   0.3569
  -1.700   0.0537   0.00706   0.00167  -0.0533   0.7268   0.3692
  -1.600   0.0645   0.00700   0.00165  -0.0532   0.7206   0.3820
  -1.500   0.0752   0.00697   0.00163  -0.0530   0.7147   0.3951
  -1.400   0.0861   0.00692   0.00162  -0.0530   0.7090   0.4094
  -1.100   0.1183   0.00678   0.00158  -0.0527   0.6908   0.4613
  -0.800   0.1504   0.00665   0.00156  -0.0523   0.6727   0.5153
  -0.700   0.1610   0.00661   0.00155  -0.0522   0.6663   0.5331
  -0.600   0.1715   0.00659   0.00155  -0.0520   0.6603   0.5505
  -0.500   0.1824   0.00654   0.00155  -0.0519   0.6544   0.5673
  -0.400   0.1931   0.00651   0.00155  -0.0518   0.6481   0.5839
  -0.300   0.2036   0.00650   0.00156  -0.0516   0.6424   0.6000
  -0.200   0.2145   0.00646   0.00156  -0.0515   0.6363   0.6158
  -0.100   0.2251   0.00644   0.00157  -0.0514   0.6301   0.6312
  -0.000   0.2357   0.00644   0.00157  -0.0512   0.6244   0.6465
   0.100   0.2466   0.00641   0.00158  -0.0511   0.6187   0.6617
   0.200   0.2572   0.00639   0.00159  -0.0510   0.6126   0.6770
   0.300   0.2676   0.00638   0.00161  -0.0508   0.6069   0.6920
   0.400   0.2785   0.00636   0.00162  -0.0507   0.6013   0.7063
   0.500   0.2892   0.00635   0.00163  -0.0505   0.5955   0.7207
   0.700   0.3103   0.00633   0.00167  -0.0501   0.5846   0.7498
   0.800   0.3209   0.00632   0.00168  -0.0500   0.5788   0.7635
   0.900   0.3313   0.00634   0.00171  -0.0497   0.5734   0.7772
   1.000   0.3420   0.00633   0.00173  -0.0496   0.5684   0.7913
   1.100   0.3525   0.00632   0.00175  -0.0493   0.5629   0.8050
   1.200   0.3629   0.00633   0.00178  -0.0491   0.5575   0.8176
   1.300   0.3734   0.00634   0.00180  -0.0489   0.5525   0.8307
   1.400   0.3839   0.00634   0.00183  -0.0487   0.5475   0.8437
   1.500   0.3942   0.00635   0.00186  -0.0484   0.5423   0.8559
   1.600   0.4044   0.00638   0.00189  -0.0481   0.5373   0.8676
   1.700   0.4149   0.00639   0.00192  -0.0479   0.5328   0.8790
   1.800   0.4254   0.00640   0.00196  -0.0476   0.5279   0.8894
   1.900   0.4356   0.00644   0.00199  -0.0473   0.5229   0.9001
   2.000   0.4459   0.00648   0.00203  -0.0470   0.5183   0.9094
   2.100   0.4565   0.00650   0.00206  -0.0468   0.5138   0.9189
   2.200   0.4671   0.00653   0.00210  -0.0466   0.5090   0.9268
   2.300   0.4775   0.00659   0.00213  -0.0463   0.5043   0.9351
   2.400   0.4887   0.00663   0.00217  -0.0462   0.4999   0.9417
   2.500   0.5001   0.00667   0.00221  -0.0462   0.4954   0.9485
   2.600   0.5111   0.00672   0.00224  -0.0460   0.4906   0.9547
   2.700   0.5236   0.00679   0.00228  -0.0463   0.4857   0.9592
   2.800   0.5358   0.00683   0.00232  -0.0464   0.4814   0.9645
   2.900   0.5475   0.00688   0.00235  -0.0465   0.4769   0.9692
   3.000   0.5617   0.00694   0.00239  -0.0471   0.4718   0.9720
   3.100   0.5750   0.00702   0.00244  -0.0476   0.4669   0.9752
   3.200   0.5884   0.00706   0.00248  -0.0480   0.4625   0.9786
   3.300   0.6011   0.00712   0.00252  -0.0483   0.4576   0.9820
   3.400   0.6163   0.00719   0.00256  -0.0492   0.4522   0.9835
   3.500   0.6319   0.00726   0.00261  -0.0501   0.4473   0.9848
   3.600   0.6475   0.00731   0.00264  -0.0511   0.4421   0.9861
   3.700   0.6626   0.00738   0.00269  -0.0520   0.4366   0.9876
   3.800   0.6774   0.00746   0.00273  -0.0528   0.4313   0.9893
   3.900   0.6925   0.00751   0.00278  -0.0536   0.4261   0.9911
   4.000   0.7070   0.00758   0.00282  -0.0543   0.4203   0.9929
   4.100   0.7229   0.00767   0.00288  -0.0554   0.4144   0.9940
   4.200   0.7397   0.00771   0.00292  -0.0566   0.4085   0.9952
   4.300   0.7562   0.00779   0.00296  -0.0578   0.4018   0.9964
   4.400   0.7724   0.00787   0.00301  -0.0589   0.3955   0.9977
   4.500   0.7885   0.00793   0.00305  -0.0600   0.3887   0.9989
   4.700   0.8138   0.00808   0.00314  -0.0607   0.3761   1.0000
   4.800   0.8225   0.00814   0.00318  -0.0603   0.3698   1.0000
   4.900   0.8309   0.00822   0.00323  -0.0597   0.3638   1.0000
   5.000   0.8399   0.00827   0.00326  -0.0593   0.3580   1.0000
   5.100   0.8484   0.00834   0.00331  -0.0588   0.3513   1.0000
   5.200   0.8569   0.00843   0.00336  -0.0583   0.3452   1.0000
   5.300   0.8657   0.00849   0.00341  -0.0578   0.3387   1.0000
   5.400   0.8739   0.00859   0.00347  -0.0572   0.3319   1.0000
   5.500   0.8827   0.00866   0.00352  -0.0568   0.3257   1.0000
   5.600   0.8912   0.00875   0.00358  -0.0563   0.3187   1.0000
   5.700   0.8995   0.00885   0.00365  -0.0557   0.3121   1.0000
   5.800   0.9082   0.00893   0.00370  -0.0552   0.3050   1.0000
   6.000   0.9251   0.00913   0.00384  -0.0542   0.2911   1.0000
   6.100   0.9334   0.00925   0.00392  -0.0536   0.2835   1.0000
   6.200   0.9420   0.00935   0.00399  -0.0531   0.2768   1.0000
   6.300   0.9503   0.00946   0.00407  -0.0526   0.2691   1.0000
   6.400   0.9588   0.00958   0.00416  -0.0521   0.2622   1.0000
   6.500   0.9672   0.00969   0.00424  -0.0516   0.2545   1.0000
   6.600   0.9754   0.00983   0.00433  -0.0510   0.2472   1.0000
   6.700   0.9840   0.00994   0.00441  -0.0505   0.2398   1.0000
   6.800   0.9921   0.01009   0.00451  -0.0500   0.2323   1.0000
   6.900   1.0008   0.01020   0.00460  -0.0495   0.2250   1.0000
   7.000   1.0088   0.01036   0.00471  -0.0490   0.2173   1.0000
   7.100   1.0177   0.01048   0.00481  -0.0485   0.2101   1.0000
   7.300   1.0347   0.01077   0.00503  -0.0476   0.1957   1.0000
   7.400   1.0428   0.01094   0.00515  -0.0471   0.1879   1.0000
   7.500   1.0517   0.01108   0.00526  -0.0467   0.1813   1.0000
   7.600   1.0600   0.01125   0.00538  -0.0462   0.1739   1.0000
   7.700   1.0687   0.01139   0.00550  -0.0458   0.1676   1.0000
   7.800   1.0771   0.01156   0.00563  -0.0453   0.1607   1.0000
   7.900   1.0857   0.01172   0.00576  -0.0449   0.1545   1.0000
   8.000   1.0942   0.01188   0.00589  -0.0445   0.1482   1.0000
   8.100   1.1025   0.01207   0.00604  -0.0440   0.1418   1.0000
   8.200   1.1112   0.01222   0.00616  -0.0436   0.1363   1.0000
   8.300   1.1192   0.01242   0.00632  -0.0431   0.1302   1.0000
   8.400   1.1281   0.01256   0.00645  -0.0427   0.1255   1.0000
   8.500   1.1363   0.01274   0.00660  -0.0423   0.1202   1.0000
   8.600   1.1446   0.01292   0.00675  -0.0418   0.1152   1.0000
   8.700   1.1532   0.01308   0.00689  -0.0414   0.1108   1.0000
   8.800   1.1611   0.01329   0.00706  -0.0409   0.1059   1.0000
   8.900   1.1696   0.01345   0.00720  -0.0405   0.1020   1.0000
   9.000   1.1779   0.01361   0.00736  -0.0400   0.0980   1.0000
   9.100   1.1856   0.01383   0.00753  -0.0395   0.0939   1.0000
   9.200   1.1942   0.01398   0.00768  -0.0391   0.0908   1.0000
   9.300   1.2024   0.01415   0.00784  -0.0386   0.0875   1.0000
   9.400   1.2100   0.01436   0.00802  -0.0381   0.0841   1.0000
   9.500   1.2180   0.01454   0.00819  -0.0376   0.0812   1.0000
   9.600   1.2263   0.01470   0.00835  -0.0372   0.0785   1.0000
   9.700   1.2338   0.01490   0.00853  -0.0366   0.0757   1.0000
   9.800   1.2409   0.01513   0.00874  -0.0360   0.0727   1.0000
   9.900   1.2492   0.01528   0.00889  -0.0356   0.0709   1.0000
  10.000   1.2569   0.01545   0.00906  -0.0351   0.0687   1.0000
  10.100   1.2639   0.01566   0.00926  -0.0344   0.0666   1.0000
  10.200   1.2700   0.01589   0.00947  -0.0336   0.0643   1.0000
  10.300   1.2773   0.01605   0.00964  -0.0330   0.0629   1.0000
  10.400   1.2843   0.01622   0.00981  -0.0324   0.0613   1.0000
  10.500   1.2907   0.01642   0.01001  -0.0316   0.0596   1.0000
  10.600   1.2966   0.01666   0.01023  -0.0308   0.0580   1.0000
  10.700   1.3023   0.01690   0.01047  -0.0300   0.0563   1.0000
  10.800   1.3096   0.01707   0.01065  -0.0294   0.0552   1.0000
  10.900   1.3164   0.01726   0.01085  -0.0288   0.0539   1.0000
  11.000   1.3227   0.01748   0.01108  -0.0281   0.0526   1.0000
  11.100   1.3285   0.01774   0.01132  -0.0274   0.0513   1.0000
  11.200   1.3337   0.01803   0.01161  -0.0265   0.0500   1.0000
  11.300   1.3402   0.01825   0.01185  -0.0259   0.0490   1.0000
  11.400   1.3470   0.01846   0.01207  -0.0253   0.0482   1.0000
  11.500   1.3534   0.01869   0.01231  -0.0247   0.0472   1.0000
  11.600   1.3595   0.01894   0.01257  -0.0240   0.0463   1.0000
  11.700   1.3650   0.01922   0.01285  -0.0233   0.0453   1.0000
  11.800   1.3699   0.01954   0.01317  -0.0226   0.0443   1.0000
  11.900   1.3743   0.01991   0.01354  -0.0217   0.0433   1.0000
  12.000   1.3811   0.02013   0.01378  -0.0212   0.0427   1.0000
  12.100   1.3873   0.02038   0.01405  -0.0207   0.0420   1.0000
  12.200   1.3932   0.02065   0.01434  -0.0201   0.0413   1.0000
  12.300   1.3988   0.02095   0.01465  -0.0195   0.0405   1.0000
  12.400   1.4039   0.02129   0.01499  -0.0188   0.0398   1.0000
  12.500   1.4084   0.02166   0.01537  -0.0181   0.0391   1.0000
  12.600   1.4120   0.02210   0.01581  -0.0173   0.0384   1.0000
  12.700   1.4160   0.02252   0.01624  -0.0166   0.0378   1.0000
  12.800   1.4219   0.02282   0.01657  -0.0161   0.0373   1.0000
  12.900   1.4275   0.02314   0.01692  -0.0156   0.0368   1.0000
  13.000   1.4328   0.02349   0.01729  -0.0151   0.0363   1.0000
  13.100   1.4378   0.02387   0.01768  -0.0145   0.0358   1.0000
  13.200   1.4424   0.02427   0.01810  -0.0140   0.0353   1.0000
  13.300   1.4466   0.02471   0.01855  -0.0134   0.0348   1.0000
  13.400   1.4503   0.02519   0.01905  -0.0128   0.0343   1.0000
  13.500   1.4532   0.02574   0.01960  -0.0122   0.0338   1.0000
  13.600   1.4549   0.02639   0.02026  -0.0115   0.0333   1.0000
  13.700   1.4582   0.02693   0.02083  -0.0109   0.0329   1.0000
  13.800   1.4633   0.02734   0.02127  -0.0105   0.0325   1.0000
  13.900   1.4679   0.02779   0.02175  -0.0101   0.0322   1.0000
  14.000   1.4722   0.02828   0.02226  -0.0097   0.0318   1.0000
  14.100   1.4762   0.02879   0.02280  -0.0093   0.0314   1.0000
  14.200   1.4801   0.02931   0.02334  -0.0089   0.0310   1.0000
  14.300   1.4835   0.02990   0.02395  -0.0085   0.0307   1.0000
  14.400   1.4865   0.03052   0.02458  -0.0080   0.0303   1.0000
  14.500   1.4889   0.03120   0.02528  -0.0076   0.0300   1.0000
  14.600   1.4910   0.03193   0.02603  -0.0072   0.0296   1.0000
  14.700   1.4918   0.03277   0.02690  -0.0068   0.0293   1.0000
  14.800   1.4916   0.03372   0.02787  -0.0064   0.0289   1.0000
  14.900   1.4913   0.03470   0.02888  -0.0060   0.0286   1.0000
  15.000   1.4950   0.03532   0.02953  -0.0058   0.0284   1.0000
